<?xml version="1.0" encoding="UTF-8"?>

<!-- generated on 2021-11-09 09:24:44 by Eclipse SUMO netconvert Version 1.10.0
<configuration xmlns:xsi="http://www.w3.org/2001/XMLSchema-instance" xsi:noNamespaceSchemaLocation="http://sumo.dlr.de/xsd/netconvertConfiguration.xsd">

    <input>
        <sumo-net-file value="LosAngeles.net.xml"/>
    </input>

    <output>
        <plain-output-prefix value="LosAngeles"/>
    </output>

    <processing>
        <geometry.min-radius.fix.railways value="false"/>
        <geometry.max-grade.fix value="false"/>
        <offset.disable-normalization value="true"/>
        <lefthand value="false"/>
    </processing>

    <junctions>
        <no-internal-links value="true"/>
        <no-turnarounds value="true"/>
        <junctions.corner-detail value="5"/>
        <junctions.limit-turn-speed value="5.5"/>
        <rectangular-lane-cut value="false"/>
    </junctions>

    <pedestrian>
        <walkingareas value="false"/>
    </pedestrian>

    <report>
        <aggregate-warnings value="5"/>
    </report>

</configuration>
-->

<edges version="1.9" xmlns:xsi="http://www.w3.org/2001/XMLSchema-instance" xsi:noNamespaceSchemaLocation="http://sumo.dlr.de/xsd/edges_file.xsd">
    <edge id="-13275115#0" from="627877200" to="122526544" priority="1" type="highway.service" numLanes="1" speed="5.56" allow="pedestrian delivery bicycle"/>
    <edge id="-13275115#1" from="122526546" to="627877200" priority="1" type="highway.service" numLanes="1" speed="5.56" allow="pedestrian delivery bicycle"/>
    <edge id="-13275115#2" from="122526550" to="122526546" priority="1" type="highway.service" numLanes="1" speed="5.56" allow="pedestrian delivery bicycle"/>
    <edge id="-13275115#3" from="580299867" to="122526550" priority="1" type="highway.service" numLanes="1" speed="5.56" allow="pedestrian delivery bicycle"/>
    <edge id="-13275685" from="122526550" to="122531462" priority="1" type="highway.service" numLanes="1" speed="5.56" allow="pedestrian delivery bicycle"/>
    <edge id="-13280610" from="122574030" to="1786861400" priority="3" type="highway.residential" numLanes="1" speed="13.89" disallow="tram rail_urban rail rail_electric rail_fast ship"/>
    <edge id="-13295727#0" from="693968788" to="122669091" priority="1" type="highway.service" numLanes="1" speed="6.71" shape="3189.77,3757.99 3183.12,3778.79 3180.88,3785.42" allow="pedestrian delivery bicycle"/>
    <edge id="-13295727#1" from="cluster_1839490198_21651002" to="693968788" priority="1" type="highway.service" numLanes="1" speed="6.71" shape="3195.57,3724.68 3195.60,3734.75 3195.22,3739.89 3193.77,3746.08 3189.77,3757.99" allow="pedestrian delivery bicycle"/>
    <edge id="-13299744" from="122696462" to="122696459" priority="3" type="highway.residential" numLanes="1" speed="13.89" disallow="tram rail_urban rail rail_electric rail_fast ship"/>
    <edge id="-13300442#0" from="7451284108" to="693662763" priority="3" type="highway.residential" numLanes="1" speed="13.89" disallow="tram rail_urban rail rail_electric rail_fast ship"/>
    <edge id="-13300442#1" from="122700455" to="7451284108" priority="3" type="highway.residential" numLanes="1" speed="13.89" shape="3839.38,1387.34 3878.91,1381.95 3879.74,1381.83" disallow="tram rail_urban rail rail_electric rail_fast ship"/>
    <edge id="-13302072" from="580303030" to="580302996" priority="1" type="highway.service" numLanes="1" speed="5.56" allow="pedestrian delivery bicycle"/>
    <edge id="-13302074#0" from="122709842" to="122709840" priority="3" type="highway.residential" numLanes="1" speed="13.89" disallow="tram rail_urban rail rail_electric rail_fast ship"/>
    <edge id="-13328845#0" from="122871742" to="602741675" priority="3" type="highway.residential" numLanes="1" speed="13.89" shape="3640.58,1802.08 3618.15,1788.18 3609.35,1786.81 3601.89,1783.94 3525.89,1739.28" disallow="tram rail_urban rail rail_electric rail_fast ship"/>
    <edge id="-13328845#1" from="122462702" to="122871742" priority="3" type="highway.residential" numLanes="1" speed="13.89" disallow="tram rail_urban rail rail_electric rail_fast ship"/>
    <edge id="-13330188" from="122880247" to="122880245" priority="3" type="highway.residential" numLanes="1" speed="13.89" disallow="tram rail_urban rail rail_electric rail_fast ship"/>
    <edge id="-13333800" from="2317833923" to="122898964" priority="3" type="highway.residential" numLanes="1" speed="13.89" disallow="tram rail_urban rail rail_electric rail_fast ship"/>
    <edge id="-13344084" from="122953080" to="122953075" priority="3" type="highway.residential" numLanes="1" speed="13.89" shape="3537.23,2541.45 3457.19,2562.88 3471.90,2615.63" disallow="tram rail_urban rail rail_electric rail_fast ship"/>
    <edge id="-13347418" from="1840753778" to="1840753777" priority="3" type="highway.residential" numLanes="1" speed="13.89" disallow="tram rail_urban rail rail_electric rail_fast ship"/>
    <edge id="-13351388#0" from="122995011" to="cluster_122995009_7870701239" priority="3" type="highway.residential" numLanes="1" speed="13.89" shape="5042.40,1530.95 4947.85,1522.50 4939.42,1521.75" disallow="tram rail_urban rail rail_electric rail_fast ship"/>
    <edge id="-13351388#1" from="8755862907" to="122995011" priority="3" type="highway.residential" numLanes="1" speed="13.89" disallow="tram rail_urban rail rail_electric rail_fast ship"/>
    <edge id="-13351388#2" from="1842153456" to="8755862907" priority="3" type="highway.residential" numLanes="1" speed="13.89" shape="5208.13,1518.88 5189.56,1538.83 5182.34,1542.17 5175.25,1542.92 5161.55,1541.72 5106.03,1536.82" disallow="tram rail_urban rail rail_electric rail_fast ship"/>
    <edge id="-13368088" from="123087812" to="123087806" priority="1" type="highway.service" numLanes="1" speed="5.56" shape="4390.38,1849.76 4423.21,1791.25 4364.67,1756.97" allow="pedestrian delivery bicycle"/>
    <edge id="-13383068" from="123184632" to="cluster_123184629_123184638" priority="3" type="highway.residential" numLanes="1" speed="13.89" shape="4406.20,3676.37 4396.01,3628.36" disallow="tram rail_urban rail rail_electric rail_fast ship"/>
    <edge id="-13383069#1" from="cluster_123184629_123184638" to="122810286" priority="3" type="highway.residential" numLanes="1" speed="13.89" shape="4406.05,3625.67 4364.40,3445.04 4363.21,3439.86" disallow="tram rail_urban rail rail_electric rail_fast ship"/>
    <edge id="-13385605" from="1852281774" to="cluster_123212633_7224839359_7397086469" priority="3" type="highway.residential" numLanes="1" speed="13.89" shape="4541.28,1397.64 4541.81,1435.97 4546.73,1463.35 4614.55,1461.57" disallow="tram rail_urban rail rail_electric rail_fast ship"/>
    <edge id="-13390279" from="32602676" to="123255114" priority="3" type="highway.residential" numLanes="1" speed="13.89" shape="3782.15,2862.48 3749.93,2856.26 3713.90,2844.15 3690.89,2834.73 3680.57,2833.71 3668.20,2836.71 3657.44,2846.34 3652.31,2864.44 3647.74,2894.40 3641.58,2908.24" disallow="tram rail_urban rail rail_electric rail_fast ship"/>
    <edge id="-13390282#0" from="122898955" to="123255130" priority="3" type="highway.residential" numLanes="1" speed="13.89" disallow="tram rail_urban rail rail_electric rail_fast ship"/>
    <edge id="-13390282#1" from="123255133" to="122898955" priority="3" type="highway.residential" numLanes="1" speed="13.89" disallow="tram rail_urban rail rail_electric rail_fast ship"/>
    <edge id="-13413544#0" from="7085527788" to="123418965" priority="3" type="highway.residential" numLanes="1" speed="13.89" disallow="tram rail_urban rail rail_electric rail_fast ship"/>
    <edge id="-13413544#1" from="122995011" to="7085527788" priority="3" type="highway.residential" numLanes="1" speed="13.89" shape="5042.40,1530.95 5042.33,1540.87 5041.96,1581.66" disallow="tram rail_urban rail rail_electric rail_fast ship"/>
    <edge id="-13413544#2" from="6730016723" to="122995011" priority="3" type="highway.residential" numLanes="1" speed="13.89" shape="5042.02,1495.09 5042.32,1521.30 5042.40,1530.95" disallow="tram rail_urban rail rail_electric rail_fast ship"/>
    <edge id="-13413544#3" from="8755862909" to="6730016723" priority="3" type="highway.residential" numLanes="1" speed="13.89" disallow="tram rail_urban rail rail_electric rail_fast ship"/>
    <edge id="-13413544#4" from="6735826825" to="8755862909" priority="3" type="highway.residential" numLanes="1" speed="13.89" disallow="tram rail_urban rail rail_electric rail_fast ship"/>
    <edge id="-13413544#5" from="8410958886" to="6735826825" priority="3" type="highway.residential" numLanes="1" speed="13.89" disallow="tram rail_urban rail rail_electric rail_fast ship"/>
    <edge id="-13413544#6" from="123411909" to="8410958886" priority="3" type="highway.residential" numLanes="1" speed="13.89" disallow="tram rail_urban rail rail_electric rail_fast ship"/>
    <edge id="-13418978" from="123455875" to="123185483" priority="3" type="highway.residential" numLanes="1" speed="13.89" disallow="tram rail_urban rail rail_electric rail_fast ship"/>
    <edge id="-13431074#0" from="7224839365" to="cluster_122748103_123547560_7870701236_8461004652" priority="3" type="highway.residential" numLanes="1" speed="13.89" shape="4615.26,1516.85 4616.06,1579.65" disallow="tram rail_urban rail rail_electric rail_fast ship"/>
    <edge id="-13431074#1" from="cluster_123212633_7224839359_7397086469" to="7224839365" priority="3" type="highway.residential" numLanes="1" speed="13.89" shape="4614.81,1481.17 4615.26,1516.85" disallow="tram rail_urban rail rail_electric rail_fast ship"/>
    <edge id="-13431074#4" from="122940740" to="cluster_123212633_7224839359_7397086469" priority="3" type="highway.residential" numLanes="1" speed="13.89" shape="4615.34,1317.09 4615.20,1353.50 4614.55,1461.57" disallow="tram rail_urban rail rail_electric rail_fast ship"/>
    <edge id="-13431076#1" from="6735572691" to="123268721" priority="3" type="highway.residential" numLanes="1" speed="13.89" shape="4561.00,1612.58 4490.03,1736.48 4484.60,1747.15" disallow="tram rail_urban rail rail_electric rail_fast ship"/>
    <edge id="-13431076#2" from="cluster_122748103_123547560_7870701236_8461004652" to="6735572691" priority="3" type="highway.residential" numLanes="1" speed="13.89" shape="4585.33,1569.73 4561.00,1612.58" disallow="tram rail_urban rail rail_electric rail_fast ship"/>
    <edge id="-13453074#0" from="123456897" to="3631627780" priority="3" type="highway.residential" numLanes="1" speed="13.89" shape="3606.03,1558.15 3660.07,1443.88 3675.58,1415.70 3689.52,1383.65" disallow="tram rail_urban rail rail_electric rail_fast ship"/>
    <edge id="-13469049" from="1840753819" to="123185480" priority="3" type="highway.residential" numLanes="1" speed="13.89" disallow="tram rail_urban rail rail_electric rail_fast ship"/>
    <edge id="-148310386#0" from="6734631394" to="1614182661" priority="3" type="highway.residential" numLanes="1" speed="13.89" disallow="tram rail_urban rail rail_electric rail_fast ship"/>
    <edge id="-148310386#1" from="cluster_6726693726_7882792886" to="6734631394" priority="3" type="highway.residential" numLanes="1" speed="13.89" shape="1460.62,1600.71 1478.60,1611.60" disallow="tram rail_urban rail rail_electric rail_fast ship"/>
    <edge id="-148310386#3" from="1614182645" to="cluster_6726693726_7882792886" priority="3" type="highway.residential" numLanes="1" speed="13.89" shape="1346.71,1531.67 1353.74,1535.87 1457.24,1598.65" disallow="tram rail_urban rail rail_electric rail_fast ship"/>
    <edge id="-148311322" from="1614189750" to="1614189748" priority="3" type="highway.residential" numLanes="1" speed="13.89" shape="2121.39,1734.20 2129.48,1701.77 2131.27,1690.04 2131.05,1680.14 2129.34,1669.80 2102.06,1591.54 2086.24,1543.85 2084.60,1526.60 2086.54,1509.83 2092.89,1493.01 2100.91,1481.57 2114.95,1464.57 2140.22,1433.79 2151.05,1424.47 2160.95,1420.06 2171.54,1418.47 2182.73,1419.99 2193.88,1423.77 2201.84,1429.22 2208.99,1436.33 2213.87,1446.51 2216.21,1456.68 2215.82,1469.02 2211.60,1482.26 2201.37,1515.47 2200.69,1526.37 2202.73,1537.48 2216.65,1592.73 2231.43,1643.15 2244.79,1670.55 2263.10,1703.57" disallow="tram rail_urban rail rail_electric rail_fast ship"/>
    <edge id="-154405377#0" from="1873969039" to="1669450893" priority="1" type="highway.track" numLanes="1" speed="5.56" shape="1818.36,2666.34 1807.59,2658.42 1802.30,2653.28 1790.77,2634.94 1786.39,2627.74 1779.68,2619.72 1770.35,2618.30 1763.07,2621.24 1755.38,2627.66 1747.36,2637.11 1738.74,2644.54 1729.07,2649.81 1717.99,2652.09 1703.92,2650.39 1687.10,2648.49 1589.73,2632.22 1569.69,2627.44 1567.70,2617.00" allow="pedestrian motorcycle moped bicycle"/>
    <edge id="-154405377#1" from="1978887174" to="1873969039" priority="1" type="highway.track" numLanes="1" speed="5.56" shape="1951.67,2691.14 1952.31,2687.02 1948.31,2680.75 1940.38,2675.93 1930.17,2669.74 1918.53,2666.03 1909.48,2663.97 1903.32,2665.35 1895.75,2669.16 1881.57,2675.97 1867.43,2678.13 1854.81,2677.48 1838.08,2674.26 1828.14,2671.20 1818.36,2666.34" allow="pedestrian motorcycle moped bicycle"/>
    <edge id="-154405383#0" from="1669449810" to="1669449697" priority="3" type="highway.residential" numLanes="1" speed="13.89" shape="1759.99,2398.87 1762.96,2392.07 1770.85,2380.66 1774.44,2373.07 1777.10,2364.17 1779.56,2345.62 1780.35,2326.98 1779.48,2308.13 1778.48,2302.27 1775.72,2294.76 1771.49,2288.04 1765.42,2281.91 1749.04,2270.35 1732.78,2260.89 1724.81,2257.66 1717.32,2256.20 1709.02,2255.97 1699.72,2257.74 1692.56,2260.60 1685.42,2265.01 1680.68,2269.73 1677.97,2274.64 1676.38,2280.43 1676.59,2290.29 1678.69,2303.58 1682.72,2316.39 1687.55,2326.98" disallow="tram rail_urban rail rail_electric rail_fast ship"/>
    <edge id="-154405383#1" from="1669449909" to="1669449810" priority="3" type="highway.residential" numLanes="1" speed="13.89" shape="1870.28,2434.14 1862.07,2433.46 1856.17,2433.98 1851.75,2435.14 1840.77,2442.04 1831.78,2446.14 1822.31,2448.69 1813.65,2449.68 1804.23,2449.46 1794.16,2447.70 1784.43,2444.27 1775.33,2439.38 1769.28,2434.80 1764.51,2429.20 1760.54,2421.60 1758.60,2413.30 1758.51,2405.98 1759.99,2398.87" disallow="tram rail_urban rail rail_electric rail_fast ship"/>
    <edge id="-154405383#2" from="1669449759" to="1669449909" priority="3" type="highway.residential" numLanes="1" speed="13.89" shape="1974.52,2349.05 1971.17,2354.74 1967.41,2364.10 1954.48,2416.38 1951.79,2422.85 1947.61,2428.33 1942.49,2432.39 1936.99,2434.89 1931.01,2436.19 1870.28,2434.14" disallow="tram rail_urban rail rail_electric rail_fast ship"/>
    <edge id="-154405383#3" from="1669449705" to="1669449759" priority="3" type="highway.residential" numLanes="1" speed="13.89" shape="2036.14,2326.13 2033.28,2333.92 2029.11,2340.41 2024.19,2345.46 2017.88,2349.75 2011.46,2352.49 2003.26,2354.03 1996.25,2353.89 1974.52,2349.05" disallow="tram rail_urban rail rail_electric rail_fast ship"/>
    <edge id="-154405390" from="1669449810" to="1669449653" priority="3" type="highway.residential" numLanes="1" speed="13.89" shape="1759.99,2398.87 1743.13,2385.10 1740.42,2382.35 1737.79,2377.84 1735.76,2369.99 1734.91,2360.79 1736.33,2341.26 1735.38,2331.18 1732.48,2320.12 1725.95,2306.11" disallow="tram rail_urban rail rail_electric rail_fast ship"/>
    <edge id="-154405395" from="1669449759" to="1669449620" priority="3" type="highway.residential" numLanes="1" speed="13.89" shape="1974.52,2349.05 1976.42,2346.03 1982.97,2338.30 1989.81,2332.45 1994.57,2328.62 1998.10,2323.59 2000.16,2317.80 2000.45,2311.69 1998.99,2305.28 1995.88,2299.99 1991.50,2295.72 1986.11,2292.79 1967.82,2290.46" disallow="tram rail_urban rail rail_electric rail_fast ship"/>
    <edge id="-154405403" from="1669449033" to="1669448958" priority="3" type="highway.residential" numLanes="1" speed="13.89" shape="1614.83,1910.63 1618.25,1895.62 1620.29,1889.16 1624.44,1881.35 1630.26,1874.40 1636.66,1869.33 1645.37,1865.01 1652.54,1863.15 1661.48,1862.49 1669.62,1863.61 1676.75,1865.97 1689.47,1872.80 1699.11,1876.90 1709.39,1879.99 1720.02,1881.64 1730.82,1882.06 1741.51,1881.27 1755.03,1878.22 1764.77,1874.45 1772.64,1869.81" disallow="tram rail_urban rail rail_electric rail_fast ship"/>
    <edge id="-154405423" from="1669448883" to="1669448854" priority="3" type="highway.residential" numLanes="1" speed="13.89" shape="1421.18,1848.08 1366.59,1852.27 1321.27,1843.87" disallow="tram rail_urban rail rail_electric rail_fast ship"/>
    <edge id="-154405431#0" from="1669450238" to="14956738" priority="3" type="highway.residential" numLanes="1" speed="13.89" shape="1941.82,2492.06 1919.18,2488.90 1896.41,2489.50 1890.15,2490.80 1883.36,2493.87 1877.88,2498.15 1873.79,2503.19 1870.81,2508.89 1868.34,2518.45 1865.48,2525.47 1862.93,2534.36 1853.48,2543.16" disallow="tram rail_urban rail rail_electric rail_fast ship"/>
    <edge id="-154405431#1" from="1669450420" to="1669450238" priority="3" type="highway.residential" numLanes="1" speed="13.89" disallow="tram rail_urban rail rail_electric rail_fast ship"/>
    <edge id="-154405431#2" from="1669450843" to="1669450420" priority="3" type="highway.residential" numLanes="1" speed="13.89" shape="2017.56,2600.29 1964.33,2546.14 1960.41,2541.75 1954.31,2533.06 1949.58,2523.36" disallow="tram rail_urban rail rail_electric rail_fast ship"/>
    <edge id="-154405431#3" from="1669450903" to="1669450843" priority="3" type="highway.residential" numLanes="1" speed="13.89" disallow="tram rail_urban rail rail_electric rail_fast ship"/>
    <edge id="-154405439#0" from="1669448883" to="1669448624" priority="3" type="highway.residential" numLanes="1" speed="13.89" disallow="tram rail_urban rail rail_electric rail_fast ship"/>
    <edge id="-154405439#1" from="1669448853" to="1669448883" priority="3" type="highway.residential" numLanes="1" speed="13.89" shape="1499.82,1835.93 1490.55,1840.26 1479.44,1844.16 1466.10,1847.32 1450.43,1848.84 1421.18,1848.08" disallow="tram rail_urban rail rail_electric rail_fast ship"/>
    <edge id="-154405439#2" from="1669449033" to="1669448853" priority="3" type="highway.residential" numLanes="1" speed="13.89" shape="1614.83,1910.63 1610.11,1909.47 1601.31,1906.36 1590.17,1900.72 1581.74,1897.28 1570.92,1894.97 1553.10,1894.40 1542.65,1892.20 1535.51,1889.29 1527.15,1884.40 1519.79,1878.17 1513.70,1870.70 1508.52,1861.34 1499.82,1835.93" disallow="tram rail_urban rail rail_electric rail_fast ship"/>
    <edge id="-154405439#3" from="1669449076" to="1669449033" priority="3" type="highway.residential" numLanes="1" speed="13.89" shape="1673.64,1929.89 1658.33,1922.42 1644.33,1916.71 1629.80,1912.56 1614.83,1910.63" disallow="tram rail_urban rail rail_electric rail_fast ship"/>
    <edge id="-154405439#4" from="1669449098" to="1669449076" priority="3" type="highway.residential" numLanes="1" speed="13.89" shape="1748.70,1942.52 1691.13,1934.56 1682.35,1932.78 1673.64,1929.89" disallow="tram rail_urban rail rail_electric rail_fast ship"/>
    <edge id="-154405439#5" from="1669449517" to="1669449098" priority="3" type="highway.residential" numLanes="1" speed="13.89" shape="1927.26,2208.43 1926.00,2203.01 1921.56,2186.76 1914.40,2167.11 1905.59,2148.03 1897.30,2133.37 1885.09,2115.22 1865.70,2090.94 1855.75,2076.20 1801.16,1978.48 1794.31,1968.92 1786.00,1960.59 1777.72,1954.37 1768.61,1949.04 1758.88,1945.05 1748.70,1942.52" disallow="tram rail_urban rail rail_electric rail_fast ship"/>
    <edge id="-154405439#6" from="1669449620" to="1669449517" priority="3" type="highway.residential" numLanes="1" speed="13.89" shape="1967.82,2290.46 1939.04,2244.78 1934.22,2235.30 1930.69,2225.25 1927.26,2208.43" disallow="tram rail_urban rail rail_electric rail_fast ship"/>
    <edge id="-154405439#7" from="1669449909" to="1669449620" priority="3" type="highway.residential" numLanes="1" speed="13.89" shape="1870.28,2434.14 1867.55,2428.96 1866.59,2425.87 1866.15,2420.22 1867.38,2414.99 1895.53,2370.07 1902.51,2360.22 1911.98,2349.69 1949.68,2316.41 1954.05,2311.70 1957.94,2305.55 1967.82,2290.46" disallow="tram rail_urban rail rail_electric rail_fast ship"/>
    <edge id="-154405439#8" from="14956738" to="1669449909" priority="3" type="highway.residential" numLanes="1" speed="13.89" shape="1853.48,2543.16 1854.85,2514.49 1855.11,2501.98 1856.87,2488.31 1859.52,2476.81 1864.30,2465.58 1870.00,2453.85 1871.62,2447.22 1871.77,2441.15 1870.28,2434.14" disallow="tram rail_urban rail rail_electric rail_fast ship"/>
    <edge id="-154405460#0" from="1669448350" to="cluster_1669448008_1669448016" priority="3" type="highway.residential" numLanes="1" speed="13.89" shape="3367.29,1643.18 3455.86,1580.69 3477.28,1559.25" disallow="tram rail_urban rail rail_electric rail_fast ship"/>
    <edge id="-154405460#1" from="1669448567" to="1669448350" priority="3" type="highway.residential" numLanes="1" speed="13.89" shape="3287.73,1717.43 3293.41,1714.04 3293.96,1713.70 3367.29,1643.18" disallow="tram rail_urban rail rail_electric rail_fast ship"/>
    <edge id="-154405460#2" from="1669448828" to="1669448567" priority="3" type="highway.residential" numLanes="1" speed="13.89" shape="3086.10,1803.89 3110.18,1790.29 3121.80,1782.72 3132.22,1774.39 3143.16,1763.17 3150.79,1753.54 3158.08,1745.47 3165.75,1739.39 3174.28,1734.63 3183.28,1731.20 3201.22,1726.88 3219.36,1724.12 3277.79,1719.88 3281.29,1719.39 3287.73,1717.43" disallow="tram rail_urban rail rail_electric rail_fast ship"/>
    <edge id="-154405471#0" from="1669446803" to="600112962" priority="3" type="highway.residential" numLanes="1" speed="13.89" shape="3508.30,1283.77 3503.61,1276.61 3500.97,1269.17 3499.21,1258.13 3499.10,1246.39 3500.23,1234.58 3503.03,1222.37 3527.66,1162.06 3529.92,1157.82 3533.56,1153.79 3541.71,1148.70 3545.18,1145.00 3547.43,1140.54 3547.70,1136.61 3546.90,1132.34 3543.55,1126.44 3540.46,1118.65 3536.69,1106.96 3534.08,1089.23 3534.14,1073.16 3534.64,1058.69 3537.56,1041.46 3540.48,1036.70 3543.30,1033.32 3548.02,1029.39 3552.70,1025.29 3557.70,1017.78 3561.38,1008.89 3561.71,1003.55 3558.56,981.26 3556.86,968.52 3555.90,940.94 3555.21,932.92" disallow="tram rail_urban rail rail_electric rail_fast ship"/>
    <edge id="-154405471#1" from="cluster_1669448008_1669448016" to="1669446803" priority="3" type="highway.residential" numLanes="1" speed="13.89" shape="3483.39,1552.97 3519.21,1516.28 3527.04,1507.21 3533.75,1497.26 3577.18,1410.02 3579.44,1406.11 3584.72,1400.06 3596.89,1391.26 3608.76,1381.14 3619.52,1369.92 3628.64,1359.35 3639.58,1340.63 3645.76,1328.00 3651.14,1311.62 3654.28,1294.91 3654.90,1279.34 3654.00,1261.48 3652.10,1245.40 3648.58,1226.95 3643.45,1208.52 3641.42,1204.24 3638.20,1199.97 3632.70,1196.32 3625.34,1194.45 3617.46,1194.47 3605.56,1195.52 3590.10,1199.26 3577.15,1204.18 3560.86,1212.49 3550.16,1220.05 3542.07,1227.31 3533.28,1237.91 3527.07,1247.33 3521.88,1258.51 3514.09,1276.86 3508.30,1283.77" disallow="tram rail_urban rail rail_electric rail_fast ship"/>
    <edge id="-154405485#1" from="1837324076" to="cluster_1669448008_1669448016" priority="3" type="highway.residential" numLanes="1" speed="13.89" shape="3259.57,1899.83 3282.46,1852.76 3287.17,1841.83 3306.00,1828.40 3324.10,1797.80 3326.46,1793.72 3354.85,1745.03 3361.94,1736.40 3428.30,1676.51 3435.69,1669.43 3443.87,1659.69 3507.35,1566.77 3483.39,1552.97" disallow="tram rail_urban rail rail_electric rail_fast ship"/>
    <edge id="-154405489#0" from="8429475057" to="cluster_1669448236_1669448264" priority="3" type="highway.residential" numLanes="1" speed="13.89" shape="2673.77,1536.62 2720.37,1540.93 2744.55,1543.27 2764.37,1546.62 2771.68,1549.84 2778.35,1554.66 2804.01,1582.55 2822.02,1607.62 2845.48,1625.46" disallow="tram rail_urban rail rail_electric rail_fast ship"/>
    <edge id="-154405489#1" from="1669447921" to="8429475057" priority="3" type="highway.residential" numLanes="1" speed="13.89" disallow="tram rail_urban rail rail_electric rail_fast ship"/>
    <edge id="-154405498" from="1669448203" to="cluster_1669448008_1669448016" priority="3" type="highway.residential" numLanes="1" speed="13.89" shape="3149.38,1587.65 3159.23,1585.87 3169.16,1582.87 3177.77,1578.11 3188.82,1568.66 3195.52,1565.14 3202.69,1563.17 3210.80,1562.96 3219.78,1564.85 3230.31,1565.95 3238.05,1565.41 3246.79,1563.54 3256.18,1561.87 3266.88,1561.75 3288.05,1565.15 3293.48,1564.20 3297.88,1561.71 3301.52,1557.67 3307.36,1552.28 3314.04,1548.10 3321.48,1545.24 3327.47,1544.28 3330.05,1543.81 3337.34,1544.05 3344.37,1545.52 3351.50,1548.32 3368.84,1555.33 3386.70,1560.44 3401.96,1563.25 3417.47,1564.73 3432.97,1564.88 3448.55,1563.70 3477.28,1559.25" disallow="tram rail_urban rail rail_electric rail_fast ship"/>
    <edge id="-154405539#0" from="1669446416" to="1669445932" priority="3" type="highway.residential" numLanes="1" speed="13.89" shape="3430.13,1019.93 3464.15,955.65 3466.96,951.29 3497.69,905.34 3505.04,894.94 3516.58,880.39 3520.51,877.01 3528.93,871.37 3554.63,859.42 3560.76,855.47 3565.96,850.30 3569.77,844.60 3572.10,839.03 3573.76,831.36 3573.57,823.37 3571.27,815.44 3568.61,809.68 3564.49,804.29 3412.15,669.90 3402.72,660.48 3391.85,646.30 3387.94,643.68 3383.77,642.51 3378.98,642.79 3375.03,644.39 3371.38,647.76 3349.89,686.94 3347.26,690.86 3342.14,695.02 3336.35,697.20 3330.82,697.48 3325.46,696.33 3320.63,693.72 3314.19,687.70" disallow="tram rail_urban rail rail_electric rail_fast ship"/>
    <edge id="-154405539#1" from="1669447919" to="1669446416" priority="3" type="highway.residential" numLanes="1" speed="13.89" shape="2959.03,1530.46 2973.77,1537.16 2981.45,1539.18 2990.96,1539.84 2999.71,1538.63 3005.23,1536.79 3008.89,1534.08 3011.70,1530.06 3012.94,1525.72 3012.79,1521.06 3011.07,1516.31 2984.69,1485.24 2981.69,1481.17 2978.37,1473.89 2973.77,1451.77 2973.71,1446.55 2975.12,1441.21 2978.30,1436.41 2982.32,1433.03 2989.29,1429.73 3017.14,1421.20 3020.44,1419.16 3022.71,1416.36 3023.86,1412.24 3023.35,1407.70 3021.16,1402.41 3016.95,1397.02 3015.06,1393.27 3014.82,1388.73 3016.25,1384.83 3078.53,1315.66 3082.55,1312.07 3089.24,1308.66 3095.59,1307.03 3103.70,1306.94 3118.79,1310.97 3129.42,1312.62 3141.41,1312.48 3152.00,1310.58 3163.02,1306.68 3172.93,1301.68 3186.57,1292.75 3196.16,1284.99 3204.64,1276.46 3253.29,1239.95 3260.14,1234.21 3267.34,1226.70 3274.42,1217.07 3279.39,1207.92 3283.42,1197.56 3284.48,1194.00 3286.97,1186.43 3290.04,1180.62 3294.95,1174.24 3300.43,1169.30 3307.94,1164.77 3316.67,1161.79 3330.35,1156.30 3343.37,1149.27 3355.35,1140.70 3366.21,1130.70 3374.49,1121.07 3382.84,1108.99 3430.13,1019.93" disallow="tram rail_urban rail rail_electric rail_fast ship"/>
    <edge id="-154405539#2" from="1669447609" to="1669447919" priority="3" type="highway.residential" numLanes="1" speed="13.89" shape="2907.55,1484.05 2910.06,1486.02 2915.39,1491.61 2921.78,1501.52 2928.15,1509.65 2935.71,1516.88 2945.20,1523.64 2959.03,1530.46" disallow="tram rail_urban rail rail_electric rail_fast ship"/>
    <edge id="-154405561" from="1669447913" to="1669447609" priority="3" type="highway.residential" numLanes="1" speed="13.89" disallow="tram rail_urban rail rail_electric rail_fast ship"/>
    <edge id="-154405563" from="1669446811" to="1669447609" priority="3" type="highway.residential" numLanes="1" speed="13.89" shape="2775.54,1301.07 2780.02,1309.52 2796.38,1343.45 2820.26,1383.07 2822.87,1388.90 2824.20,1393.92 2827.30,1403.94 2829.31,1409.93 2837.23,1420.58 2848.89,1431.46 2865.63,1439.35 2907.55,1484.05" disallow="tram rail_urban rail rail_electric rail_fast ship"/>
    <edge id="-154405591" from="1669450179" to="1669450843" priority="3" type="highway.residential" numLanes="1" speed="13.89" shape="2039.79,2484.57 2034.11,2526.00 2033.98,2538.76 2035.08,2553.27 2034.37,2563.82 2031.92,2574.16 2028.51,2582.85 2024.18,2590.56 2017.56,2600.29" disallow="tram rail_urban rail rail_electric rail_fast ship"/>
    <edge id="-154405593#0" from="1669449697" to="1669449413" priority="3" type="highway.residential" numLanes="1" speed="13.89" shape="1687.55,2326.98 1663.98,2300.09 1660.98,2296.25 1654.78,2286.67 1649.86,2276.53 1646.13,2265.82 1643.78,2254.64 1642.80,2242.12 1643.45,2227.37 1646.04,2212.14 1650.47,2197.34 1655.50,2185.41 1656.55,2181.29 1656.48,2175.19 1654.66,2169.45 1651.47,2164.83 1638.51,2154.01 1629.77,2148.23" disallow="tram rail_urban rail rail_electric rail_fast ship"/>
    <edge id="-154405593#1" from="cluster_1669450615_1669450662" to="1669449697" priority="3" type="highway.residential" numLanes="1" speed="13.89" shape="1715.42,2560.87 1708.60,2528.25 1704.89,2480.82 1704.85,2469.29 1703.65,2461.43 1701.07,2454.58 1691.19,2438.40 1684.76,2424.84 1677.39,2402.85 1674.56,2390.13 1673.97,2379.72 1674.77,2369.28 1676.96,2359.16 1681.16,2348.24 1686.94,2338.08 1688.47,2334.74 1688.79,2330.74 1687.55,2326.98" disallow="tram rail_urban rail rail_electric rail_fast ship"/>
    <edge id="-154405598" from="1669450747" to="1669450093" priority="3" type="highway.residential" numLanes="1" speed="13.89" shape="1579.34,2574.87 1571.13,2564.94 1566.17,2558.57 1563.62,2554.06 1560.66,2545.77 1559.35,2536.14 1557.27,2524.52 1554.11,2514.80 1548.81,2503.77 1543.46,2495.52 1538.03,2489.15 1531.14,2483.69 1523.34,2479.68 1514.18,2477.02 1504.67,2476.35 1495.18,2477.69 1487.01,2480.67" disallow="tram rail_urban rail rail_electric rail_fast ship"/>
    <edge id="-154405600#0" from="1669450747" to="1669450093" priority="3" type="highway.residential" numLanes="1" speed="13.89" shape="1579.34,2574.87 1499.21,2574.90 1491.27,2573.89 1482.93,2571.22 1475.22,2566.99 1467.95,2560.75 1462.61,2553.94 1458.55,2546.11 1456.15,2537.72 1455.40,2529.74 1455.95,2521.75 1457.72,2514.85 1461.22,2506.82 1469.29,2495.19 1474.47,2489.25 1480.04,2484.64 1487.01,2480.67" disallow="tram rail_urban rail rail_electric rail_fast ship"/>