<?xml version="1.0" encoding="UTF-8"?>

<!-- generated on 2021-11-09 09:24:44 by Eclipse SUMO netconvert Version 1.10.0
<configuration xmlns:xsi="http://www.w3.org/2001/XMLSchema-instance" xsi:noNamespaceSchemaLocation="http://sumo.dlr.de/xsd/netconvertConfiguration.xsd">

    <input>
        <sumo-net-file value="LosAngeles.net.xml"/>
    </input>

    <output>
        <plain-output-prefix value="LosAngeles"/>
    </output>

    <processing>
        <geometry.min-radius.fix.railways value="false"/>
        <geometry.max-grade.fix value="false"/>
        <offset.disable-normalization value="true"/>
        <lefthand value="false"/>
    </processing>

    <junctions>
        <no-internal-links value="true"/>
        <no-turnarounds value="true"/>
        <junctions.corner-detail value="5"/>
        <junctions.limit-turn-speed value="5.5"/>
        <rectangular-lane-cut value="false"/>
    </junctions>

    <pedestrian>
        <walkingareas value="false"/>
    </pedestrian>

    <report>
        <aggregate-warnings value="5"/>
    </report>

</configuration>
-->

<connections version="1.9" xmlns:xsi="http://www.w3.org/2001/XMLSchema-instance" xsi:noNamespaceSchemaLocation="http://sumo.dlr.de/xsd/connections_file.xsd">
    <connection from="-13275115#0" to="166902820#19" fromLane="0" toLane="0"/>
    <connection from="-13275115#0" to="-166902820#18" fromLane="0" toLane="0"/>
    <connection from="-13275115#0" to="13275115#0" fromLane="0" toLane="0"/>

    <connection from="-13275115#1" to="-13275115#0" fromLane="0" toLane="0"/>
    <connection from="-13275115#1" to="49431823" fromLane="0" toLane="0"/>
    <connection from="-13275115#1" to="13275115#1" fromLane="0" toLane="0"/>

    <connection from="-13275115#2" to="-167015948#7" fromLane="0" toLane="0"/>
    <connection from="-13275115#2" to="-13275115#1" fromLane="0" toLane="0"/>
    <connection from="-13275115#2" to="167015948#8" fromLane="0" toLane="0"/>
    <connection from="-13275115#2" to="13275115#2" fromLane="0" toLane="0"/>

    <connection from="-13275115#3" to="-13275115#2" fromLane="0" toLane="0"/>
    <connection from="-13275115#3" to="-13275685" fromLane="0" toLane="0"/>
    <connection from="-13275115#3" to="13275115#3" fromLane="0" toLane="0"/>

    <connection from="-13275685" to="154420359#9" fromLane="0" toLane="0"/>
    <connection from="-13275685" to="-154420359#8" fromLane="0" toLane="0"/>
    <connection from="-13275685" to="13275685" fromLane="0" toLane="0"/>

    <connection from="-13280610" to="-167276660#1" fromLane="0" toLane="0"/>
    <connection from="-13280610" to="167276660#2" fromLane="0" toLane="0"/>
    <connection from="-13280610" to="13280610" fromLane="0" toLane="0"/>

    <connection from="-13295727#0" to="55058309#5" fromLane="0" toLane="0"/>
    <connection from="-13295727#0" to="-55058309#4" fromLane="0" toLane="0"/>
    <connection from="-13295727#0" to="13295727#0" fromLane="0" toLane="0"/>

    <connection from="-13295727#1" to="-13295727#0" fromLane="0" toLane="0"/>
    <connection from="-13295727#1" to="55204863#0" fromLane="0" toLane="0"/>
    <connection from="-13295727#1" to="13295727#1" fromLane="0" toLane="0"/>

    <connection from="-13299744" to="13299744" fromLane="0" toLane="0"/>

    <connection from="-13300442#0" to="-167014704#0" fromLane="0" toLane="0"/>
    <connection from="-13300442#0" to="167014704#1" fromLane="0" toLane="0"/>
    <connection from="-13300442#0" to="13300442#0" fromLane="0" toLane="0"/>

    <connection from="-13300442#1" to="-796746627" fromLane="0" toLane="0"/>
    <connection from="-13300442#1" to="-13300442#0" fromLane="0" toLane="0"/>
    <connection from="-13300442#1" to="13300442#1" fromLane="0" toLane="0"/>

    <connection from="-13302072" to="167008820#1" fromLane="0" toLane="0"/>
    <connection from="-13302072" to="-167008820#0" fromLane="0" toLane="0"/>
    <connection from="-13302072" to="13302072" fromLane="0" toLane="0"/>

    <connection from="-13302074#0" to="167015948#13" fromLane="0" toLane="0"/>
    <connection from="-13302074#0" to="-167015948#12" fromLane="0" toLane="0"/>
    <connection from="-13302074#0" to="13302074#0" fromLane="0" toLane="0"/>

    <connection from="-13328845#0" to="13328845#0" fromLane="0" toLane="0"/>

    <connection from="-13328845#1" to="154420365" fromLane="0" toLane="0"/>
    <connection from="-13328845#1" to="-13328845#0" fromLane="0" toLane="0"/>
    <connection from="-13328845#1" to="13328845#1" fromLane="0" toLane="0"/>

    <connection from="-13330188" to="13330188" fromLane="0" toLane="0"/>

    <connection from="-13333800" to="13333800" fromLane="0" toLane="0"/>

    <connection from="-13344084" to="13344084" fromLane="0" toLane="0"/>

    <connection from="-13347418" to="167015948#11" fromLane="0" toLane="0"/>
    <connection from="-13347418" to="-167015948#10" fromLane="0" toLane="0"/>
    <connection from="-13347418" to="13347418" fromLane="0" toLane="0"/>

    <connection from="-13351388#0" to="-281967271#2" fromLane="0" toLane="0"/>
    <connection from="-13351388#0" to="843735866" fromLane="0" toLane="0"/>
    <connection from="-13351388#0" to="281967269#1" fromLane="0" toLane="0"/>
    <connection from="-13351388#0" to="13351388#0" fromLane="0" toLane="0"/>

    <connection from="-13351388#1" to="-13413544#1" fromLane="0" toLane="0"/>
    <connection from="-13351388#1" to="-13351388#0" fromLane="0" toLane="0"/>
    <connection from="-13351388#1" to="13413544#2" fromLane="0" toLane="0"/>
    <connection from="-13351388#1" to="13351388#1" fromLane="0" toLane="0"/>

    <connection from="-13351388#2" to="-13351388#1" fromLane="0" toLane="0"/>
    <connection from="-13351388#2" to="945800699" fromLane="0" toLane="0"/>
    <connection from="-13351388#2" to="13351388#2" fromLane="0" toLane="0"/>

    <connection from="-13368088" to="167015948#1" fromLane="0" toLane="0"/>
    <connection from="-13368088" to="-167015948#0" fromLane="0" toLane="0"/>
    <connection from="-13368088" to="13368088" fromLane="0" toLane="0"/>

    <connection from="-13383068" to="-167275874#12" fromLane="0" toLane="0"/>
    <connection from="-13383068" to="-13383069#1" fromLane="0" toLane="0"/>
    <connection from="-13383068" to="167275874#14" fromLane="0" toLane="0"/>
    <connection from="-13383068" to="13383068" fromLane="0" toLane="0"/>

    <connection from="-13383069#1" to="166902827#1" fromLane="0" toLane="0"/>
    <connection from="-13383069#1" to="-166902827#0" fromLane="0" toLane="0"/>
    <connection from="-13383069#1" to="13383069#0" fromLane="0" toLane="0"/>

    <connection from="-13385605" to="13431074#4" fromLane="0" toLane="0"/>
    <connection from="-13385605" to="791250777" fromLane="0" toLane="0"/>
    <connection from="-13385605" to="-13431074#1" fromLane="0" toLane="0"/>
    <connection from="-13385605" to="774169888#0" fromLane="0" toLane="0"/>
    <connection from="-13385605" to="13385605" fromLane="0" toLane="0"/>

    <connection from="-13390279" to="13390279" fromLane="0" toLane="0"/>

    <connection from="-13390282#0" to="13390282#0" fromLane="0" toLane="0"/>

    <connection from="-13390282#1" to="-606671817#0" fromLane="0" toLane="0"/>
    <connection from="-13390282#1" to="-13390282#0" fromLane="0" toLane="0"/>
    <connection from="-13390282#1" to="606671817#1" fromLane="0" toLane="0"/>
    <connection from="-13390282#1" to="13390282#1" fromLane="0" toLane="0"/>

    <connection from="-13413544#0" to="-715822571" fromLane="0" toLane="0"/>
    <connection from="-13413544#0" to="13413544#0" fromLane="0" toLane="0"/>

    <connection from="-13413544#1" to="758638047" fromLane="0" toLane="0"/>
    <connection from="-13413544#1" to="-13413544#0" fromLane="0" toLane="0"/>
    <connection from="-13413544#1" to="13413544#1" fromLane="0" toLane="0"/>

    <connection from="-13413544#2" to="13351388#1" fromLane="0" toLane="0"/>
    <connection from="-13413544#2" to="-13413544#1" fromLane="0" toLane="0"/>
    <connection from="-13413544#2" to="-13351388#0" fromLane="0" toLane="0"/>
    <connection from="-13413544#2" to="13413544#2" fromLane="0" toLane="0"/>

    <connection from="-13413544#3" to="-13413544#2" fromLane="0" toLane="0"/>
    <connection from="-13413544#3" to="-716307503" fromLane="0" toLane="0"/>
    <connection from="-13413544#3" to="13413544#3" fromLane="0" toLane="0"/>

    <connection from="-13413544#4" to="945800700" fromLane="0" toLane="0"/>
    <connection from="-13413544#4" to="-13413544#3" fromLane="0" toLane="0"/>
    <connection from="-13413544#4" to="13413544#4" fromLane="0" toLane="0"/>

    <connection from="-13413544#5" to="-13413544#4" fromLane="0" toLane="0"/>
    <connection from="-13413544#5" to="-717197117" fromLane="0" toLane="0"/>
    <connection from="-13413544#5" to="13413544#5" fromLane="0" toLane="0"/>

    <connection from="-13413544#6" to="905713342" fromLane="0" toLane="0"/>
    <connection from="-13413544#6" to="-13413544#5" fromLane="0" toLane="0"/>
    <connection from="-13413544#6" to="13413544#6" fromLane="0" toLane="0"/>

    <connection from="-13418978" to="173226985#7" fromLane="0" toLane="0"/>
    <connection from="-13418978" to="-173226985#6" fromLane="0" toLane="0"/>
    <connection from="-13418978" to="13418978" fromLane="0" toLane="0"/>

    <connection from="-13431074#0" to="-173389837#1" fromLane="0" toLane="0"/>
    <connection from="-13431074#0" to="911212662#1" fromLane="0" toLane="0"/>
    <connection from="-13431074#0" to="911212663" fromLane="0" toLane="0"/>
    <connection from="-13431074#0" to="-13431076#2" fromLane="0" toLane="0"/>
    <connection from="-13431074#0" to="173389837#4" fromLane="0" toLane="0"/>
    <connection from="-13431074#0" to="13431074#0" fromLane="0" toLane="0"/>

    <connection from="-13431074#1" to="-13431074#0" fromLane="0" toLane="0"/>
    <connection from="-13431074#1" to="-774169889" fromLane="0" toLane="0"/>
    <connection from="-13431074#1" to="13431074#1" fromLane="0" toLane="0"/>

    <connection from="-13431074#4" to="791250777" fromLane="0" toLane="0"/>
    <connection from="-13431074#4" to="-13431074#1" fromLane="0" toLane="0"/>
    <connection from="-13431074#4" to="774169888#0" fromLane="0" toLane="0"/>
    <connection from="-13431074#4" to="13385605" fromLane="0" toLane="0"/>
    <connection from="-13431074#4" to="13431074#4" fromLane="0" toLane="0"/>

    <connection from="-13431076#1" to="398611287" fromLane="0" toLane="0"/>
    <connection from="-13431076#1" to="-398611290#4" fromLane="0" toLane="1"/>
    <connection from="-13431076#1" to="13431076#0" fromLane="0" toLane="0"/>

    <connection from="-13431076#2" to="717178758#0" fromLane="0" toLane="0"/>
    <connection from="-13431076#2" to="-13431076#1" fromLane="0" toLane="0"/>
    <connection from="-13431076#2" to="13431076#2" fromLane="0" toLane="0"/>

    <connection from="-13453074#0" to="13453074#0" fromLane="0" toLane="0"/>

    <connection from="-13469049" to="173226985#6" fromLane="0" toLane="0"/>
    <connection from="-13469049" to="-173226985#5" fromLane="0" toLane="0"/>
    <connection from="-13469049" to="13469049" fromLane="0" toLane="0"/>

    <connection from="-148310386#0" to="-154413645#5" fromLane="0" toLane="0"/>
    <connection from="-148310386#0" to="154413645#6" fromLane="0" toLane="0"/>
    <connection from="-148310386#0" to="148310386#0" fromLane="0" toLane="0"/>

    <connection from="-148310386#1" to="717055681" fromLane="0" toLane="0"/>
    <connection from="-148310386#1" to="-148310386#0" fromLane="0" toLane="0"/>
    <connection from="-148310386#1" to="148310386#1" fromLane="0" toLane="0"/>

    <connection from="-148310386#3" to="844927969" fromLane="0" toLane="0"/>
    <connection from="-148310386#3" to="715777616" fromLane="0" toLane="0"/>
    <connection from="-148310386#3" to="-148310386#1" fromLane="0" toLane="0"/>
    <connection from="-148310386#3" to="148310386#3" fromLane="0" toLane="0"/>

    <connection from="-148311322" to="-154405682#1" fromLane="0" toLane="0"/>
    <connection from="-148311322" to="154405682#2" fromLane="0" toLane="0"/>
    <connection from="-148311322" to="148311321" fromLane="0" toLane="0"/>

    <connection from="-154405377#0" to="-154405601#4" fromLane="0" toLane="0"/>
    <connection from="-154405377#0" to="154405601#5" fromLane="0" toLane="0"/>
    <connection from="-154405377#0" to="154405377#0" fromLane="0" toLane="0"/>

    <connection from="-154405377#1" to="-154405377#0" fromLane="0" toLane="0"/>
    <connection from="-154405377#1" to="-176913612" fromLane="0" toLane="0"/>
    <connection from="-154405377#1" to="154405377#1" fromLane="0" toLane="0"/>

    <connection from="-154405383#0" to="154405593#1" fromLane="0" toLane="0"/>
    <connection from="-154405383#0" to="-154405593#0" fromLane="0" toLane="0"/>
    <connection from="-154405383#0" to="154405383#0" fromLane="0" toLane="0"/>

    <connection from="-154405383#1" to="-154405390" fromLane="0" toLane="0"/>
    <connection from="-154405383#1" to="-154405383#0" fromLane="0" toLane="0"/>
    <connection from="-154405383#1" to="154405383#1" fromLane="0" toLane="0"/>

    <connection from="-154405383#2" to="154405439#8" fromLane="0" toLane="0"/>
    <connection from="-154405383#2" to="-154405383#1" fromLane="0" toLane="0"/>
    <connection from="-154405383#2" to="-154405439#7" fromLane="0" toLane="0"/>
    <connection from="-154405383#2" to="154405383#2" fromLane="0" toLane="0"/>

    <connection from="-154405383#3" to="-154405383#2" fromLane="0" toLane="0"/>
    <connection from="-154405383#3" to="-154405395" fromLane="0" toLane="0"/>
    <connection from="-154405383#3" to="154405383#3" fromLane="0" toLane="0"/>

    <connection from="-154405390" to="154405390" fromLane="0" toLane="0"/>

    <connection from="-154405395" to="154405439#7" fromLane="0" toLane="0"/>
    <connection from="-154405395" to="-154405439#6" fromLane="0" toLane="0"/>
    <connection from="-154405395" to="-154405609" fromLane="0" toLane="0"/>
    <connection from="-154405395" to="154405395" fromLane="0" toLane="0"/>

    <connection from="-154405403" to="154405403" fromLane="0" toLane="0"/>

    <connection from="-154405423" to="154405423" fromLane="0" toLane="0"/>

    <connection from="-154405431#0" to="-154405604#2" fromLane="0" toLane="0"/>
    <connection from="-154405431#0" to="-154405439#8" fromLane="0" toLane="0"/>
    <connection from="-154405431#0" to="154405431#0" fromLane="0" toLane="0"/>

    <connection from="-154405431#1" to="-154405431#0" fromLane="0" toLane="0"/>
    <connection from="-154405431#1" to="-154405672" fromLane="0" toLane="0"/>
    <connection from="-154405431#1" to="154405431#1" fromLane="0" toLane="0"/>

    <connection from="-154405431#2" to="154405678" fromLane="0" toLane="0"/>
    <connection from="-154405431#2" to="-154405431#1" fromLane="0" toLane="0"/>
    <connection from="-154405431#2" to="154405431#2" fromLane="0" toLane="0"/>

    <connection from="-154405431#3" to="-154405431#2" fromLane="0" toLane="0"/>
    <connection from="-154405431#3" to="154405591" fromLane="0" toLane="0"/>
    <connection from="-154405431#3" to="154405431#3" fromLane="0" toLane="0"/>

    <connection from="-154405439#0" to="-154416515#16" fromLane="0" toLane="0"/>
    <connection from="-154405439#0" to="-154405643" fromLane="0" toLane="0"/>
    <connection from="-154405439#0" to="154405439#0" fromLane="0" toLane="0"/>

    <connection from="-154405439#1" to="-154405423" fromLane="0" toLane="0"/>
    <connection from="-154405439#1" to="-154405439#0" fromLane="0" toLane="0"/>
    <connection from="-154405439#1" to="154405439#1" fromLane="0" toLane="0"/>

    <connection from="-154405439#2" to="-154405439#1" fromLane="0" toLane="0"/>
    <connection from="-154405439#2" to="154405608" fromLane="0" toLane="0"/>
    <connection from="-154405439#2" to="154405439#2" fromLane="0" toLane="0"/>

    <connection from="-154405439#3" to="-154405439#2" fromLane="0" toLane="0"/>
    <connection from="-154405439#3" to="-154405403" fromLane="0" toLane="0"/>
    <connection from="-154405439#3" to="154405439#3" fromLane="0" toLane="0"/>

    <connection from="-154405439#4" to="154405634" fromLane="0" toLane="0"/>
    <connection from="-154405439#4" to="-154405439#3" fromLane="0" toLane="0"/>
    <connection from="-154405439#4" to="154405439#4" fromLane="0" toLane="0"/>

    <connection from="-154405439#5" to="-154405439#4" fromLane="0" toLane="0"/>
    <connection from="-154405439#5" to="-154405624#1" fromLane="0" toLane="0"/>
    <connection from="-154405439#5" to="154405439#5" fromLane="0" toLane="0"/>

    <connection from="-154405439#6" to="-154405439#5" fromLane="0" toLane="0"/>
    <connection from="-154405439#6" to="-154405611" fromLane="0" toLane="0"/>
    <connection from="-154405439#6" to="154405439#6" fromLane="0" toLane="0"/>

    <connection from="-154405439#7" to="-154405439#6" fromLane="0" toLane="0"/>
    <connection from="-154405439#7" to="-154405609" fromLane="0" toLane="0"/>
    <connection from="-154405439#7" to="154405395" fromLane="0" toLane="0"/>
    <connection from="-154405439#7" to="154405439#7" fromLane="0" toLane="0"/>

    <connection from="-154405439#8" to="-154405383#1" fromLane="0" toLane="0"/>
    <connection from="-154405439#8" to="-154405439#7" fromLane="0" toLane="0"/>
    <connection from="-154405439#8" to="154405383#2" fromLane="0" toLane="0"/>
    <connection from="-154405439#8" to="154405439#8" fromLane="0" toLane="0"/>

    <connection from="-154405460#0" to="154405498" fromLane="0" toLane="0"/>
    <connection from="-154405460#0" to="-154405471#1" fromLane="0" toLane="0"/>
    <connection from="-154405460#0" to="154405485#0" fromLane="0" toLane="0"/>
    <connection from="-154405460#0" to="154405460#0" fromLane="0" toLane="0"/>

    <connection from="-154405460#1" to="154405688" fromLane="0" toLane="0"/>
    <connection from="-154405460#1" to="-154405460#0" fromLane="0" toLane="0"/>
    <connection from="-154405460#1" to="154405460#1" fromLane="0" toLane="0"/>

    <connection from="-154405460#2" to="-154405460#1" fromLane="0" toLane="0"/>
    <connection from="-154405460#2" to="154405619#0" fromLane="0" toLane="0"/>
    <connection from="-154405460#2" to="154405460#2" fromLane="0" toLane="0"/>

    <connection from="-154405471#0" to="154405621#1" fromLane="0" toLane="0"/>
    <connection from="-154405471#0" to="-154405621#0" fromLane="0" toLane="0"/>
    <connection from="-154405471#0" to="154405471#0" fromLane="0" toLane="0"/>

    <connection from="-154405471#1" to="154405646" fromLane="0" toLane="0"/>
    <connection from="-154405471#1" to="-154405471#0" fromLane="0" toLane="0"/>
    <connection from="-154405471#1" to="154405471#1" fromLane="0" toLane="0"/>

    <connection from="-154405485#1" to="154405460#0" fromLane="0" toLane="0"/>
    <connection from="-154405485#1" to="154405498" fromLane="0" toLane="0"/>
    <connection from="-154405485#1" to="-154405471#1" fromLane="0" toLane="0"/>
    <connection from="-154405485#1" to="154405485#0" fromLane="0" toLane="0"/>

    <connection from="-154405489#0" to="-154405653#0" fromLane="0" toLane="0"/>
    <connection from="-154405489#0" to="154405653#1" fromLane="0" toLane="0"/>
    <connection from="-154405489#0" to="154405661#1" fromLane="0" toLane="0"/>
    <connection from="-154405489#0" to="154405489#0" fromLane="0" toLane="0"/>

    <connection from="-154405489#1" to="-154405489#0" fromLane="0" toLane="0"/>
    <connection from="-154405489#1" to="907803385" fromLane="0" toLane="0"/>
    <connection from="-154405489#1" to="154405489#1" fromLane="0" toLane="0"/>

    <connection from="-154405498" to="-154405471#1" fromLane="0" toLane="0"/>
    <connection from="-154405498" to="154405485#0" fromLane="0" toLane="0"/>
    <connection from="-154405498" to="154405460#0" fromLane="0" toLane="0"/>
    <connection from="-154405498" to="154405498" fromLane="0" toLane="0"/>

    <connection from="-154405539#0" to="154405539#0" fromLane="0" toLane="0"/>

    <connection from="-154405539#1" to="-154405539#0" fromLane="0" toLane="0"/>
    <connection from="-154405539#1" to="154405628#0" fromLane="0" toLane="0"/>
    <connection from="-154405539#1" to="154405539#1" fromLane="0" toLane="0"/>

    <connection from="-154405539#2" to="-154405539#1" fromLane="0" toLane="0"/>
    <connection from="-154405539#2" to="-154405628#2" fromLane="0" toLane="0"/>
    <connection from="-154405539#2" to="154405539#2" fromLane="0" toLane="0"/>

    <connection from="-154405561" to="154405563" fromLane="0" toLane="0"/>
    <connection from="-154405561" to="-154405602" fromLane="0" toLane="0"/>
    <connection from="-154405561" to="-154405539#2" fromLane="0" toLane="0"/>
    <connection from="-154405561" to="154405561" fromLane="0" toLane="0"/>

    <connection from="-154405563" to="-154405602" fromLane="0" toLane="0"/>
    <connection from="-154405563" to="-154405539#2" fromLane="0" toLane="0"/>
    <connection from="-154405563" to="154405561" fromLane="0" toLane="0"/>
    <connection from="-154405563" to="154405563" fromLane="0" toLane="0"/>

    <connection from="-154405591" to="154405431#3" fromLane="0" toLane="0"/>
    <connection from="-154405591" to="-154405431#2" fromLane="0" toLane="0"/>
    <connection from="-154405591" to="154405591" fromLane="0" toLane="0"/>

    <connection from="-154405593#0" to="154405606#2" fromLane="0" toLane="0"/>
    <connection from="-154405593#0" to="-154405606#1" fromLane="0" toLane="0"/>
    <connection from="-154405593#0" to="-154418955#0" fromLane="0" toLane="0"/>
    <connection from="-154405593#0" to="154418955#1" fromLane="0" toLane="0"/>

    <connection from="-154405593#1" to="-154405593#0" fromLane="0" toLane="0"/>
    <connection from="-154405593#1" to="154405383#0" fromLane="0" toLane="0"/>
    <connection from="-154405593#1" to="154405593#1" fromLane="0" toLane="0"/>

    <connection from="-154405598" to="154405600#0" fromLane="0" toLane="0"/>

    <connection from="-154405600#0" to="154405598" fromLane="0" toLane="0"/>

    <connection from="-154405600#1" to="-154405600#0" fromLane="0" toLane="0"/>
    <connection from="-154405600#1" to="-154405598" fromLane="0" toLane="0"/>
    <connection from="-154405600#1" to="154405600#1" fromLane="0" toLane="0"/>

    <connection from="-154405601#0" to="154416538#1" fromLane="0" toLane="0"/>
    <connection from="-154405601#0" to="-154416538#0" fromLane="0" toLane="0"/>
    <connection from="-154405601#0" to="154405601#0" fromLane="0" toLane="0"/>

    <connection from="-154405601#1" to="154416519#4" fromLane="0" toLane="0"/>
    <connection from="-154405601#1" to="-154405601#0" fromLane="0" toLane="0"/>
    <connection from="-154405601#1" to="-154416519#3" fromLane="0" toLane="0"/>
    <connection from="-154405601#1" to="154405601#1" fromLane="0" toLane="0"/>

    <connection from="-154405601#2" to="-154405601#1" fromLane="0" toLane="0"/>
    <connection from="-154405601#2" to="509825298" fromLane="0" toLane="0"/>
    <connection from="-154405601#2" to="154405601#2" fromLane="0" toLane="0"/>

    <connection from="-154405601#3" to="-154405601#2" fromLane="0" toLane="0"/>
    <connection from="-154405601#3" to="-174698546" fromLane="0" toLane="0"/>
    <connection from="-154405601#3" to="154405601#3" fromLane="0" toLane="0"/>

    <connection from="-154405601#4" to="-174698557" fromLane="0" toLane="0"/>
    <connection from="-154405601#4" to="-154405601#3" fromLane="0" toLane="0"/>
    <connection from="-154405601#4" to="154405601#4" fromLane="0" toLane="0"/>

    <connection from="-154405601#5" to="154405377#0" fromLane="0" toLane="0"/>
    <connection from="-154405601#5" to="-154405601#4" fromLane="0" toLane="0"/>
    <connection from="-154405601#5" to="154405601#5" fromLane="0" toLane="0"/>

    <connection from="-154405601#6" to="-154405601#5" fromLane="0" toLane="0"/>
    <connection from="-154405601#6" to="-154405600#1" fromLane="0" toLane="0"/>
    <connection from="-154405601#6" to="154405601#6" fromLane="0" toLane="0"/>

    <connection from="-154405602" to="154405602" fromLane="0" toLane="0"/>

    <connection from="-154405604#0" to="-154405601#6" fromLane="0" toLane="0"/>
    <connection from="-154405604#0" to="-154405607" fromLane="0" toLane="0"/>
    <connection from="-154405604#0" to="154405604#0" fromLane="0" toLane="0"/>

    <connection from="-154405604#2" to="154405718" fromLane="0" toLane="0"/>
    <connection from="-154405604#2" to="-154405604#0" fromLane="0" toLane="0"/>
    <connection from="-154405604#2" to="-154405593#1" fromLane="0" toLane="0"/>
    <connection from="-154405604#2" to="154405604#2" fromLane="0" toLane="0"/>

    <connection from="-154405605" to="-154405606#2" fromLane="0" toLane="0" keepClear="0"/>

    <connection from="-154405606#0" to="154405631" fromLane="0" toLane="0"/>
    <connection from="-154405606#0" to="-154405738" fromLane="0" toLane="0"/>
    <connection from="-154405606#0" to="154405625" fromLane="0" toLane="0"/>
    <connection from="-154405606#0" to="154405606#0" fromLane="0" toLane="0"/>

    <connection from="-154405606#1" to="-154405606#0" fromLane="0" toLane="0"/>
    <connection from="-154405606#1" to="-154405748" fromLane="0" toLane="0"/>
    <connection from="-154405606#1" to="154405606#1" fromLane="0" toLane="0"/>

    <connection from="-154405606#2" to="-154405606#1" fromLane="0" toLane="0"/>
    <connection from="-154405606#2" to="-154418955#0" fromLane="0" toLane="0"/>
    <connection from="-154405606#2" to="154418955#1" fromLane="0" toLane="0"/>
    <connection from="-154405606#2" to="154405606#2" fromLane="0" toLane="0"/>

    <connection from="-154405607" to="-154405605" fromLane="0" toLane="0"/>
    <connection from="-154405607" to="154405607" fromLane="0" toLane="0"/>

    <connection from="-154405608" to="154405439#2" fromLane="0" toLane="0"/>
    <connection from="-154405608" to="-154405439#1" fromLane="0" toLane="0"/>
    <connection from="-154405608" to="154405608" fromLane="0" toLane="0"/>

    <connection from="-154405609" to="154405611" fromLane="0" toLane="0"/>
    <connection from="-154405609" to="-154405612" fromLane="0" toLane="0"/>
    <connection from="-154405609" to="154405609" fromLane="0" toLane="0"/>

    <connection from="-154405610#1" to="796845803" fromLane="0" toLane="0"/>
    <connection from="-154405610#1" to="154405610#0" fromLane="0" toLane="0"/>

    <connection from="-154405611" to="-154405612" fromLane="0" toLane="0"/>
    <connection from="-154405611" to="154405609" fromLane="0" toLane="0"/>
    <connection from="-154405611" to="154405611" fromLane="0" toLane="0"/>

    <connection from="-154405612" to="-887983638" fromLane="0" toLane="0"/>
    <connection from="-154405612" to="154405627" fromLane="0" toLane="0"/>
    <connection from="-154405612" to="154405612" fromLane="0" toLane="0"/>

    <connection from="-154405615#0" to="-364444503#6" fromLane="0" toLane="0"/>
    <connection from="-154405615#0" to="364444503#7" fromLane="0" toLane="0"/>
    <connection from="-154405615#0" to="154405615#0" fromLane="0" toLane="0"/>

    <connection from="-154405615#1" to="-154405615#0" fromLane="0" toLane="0"/>
    <connection from="-154405615#1" to="845000358" fromLane="0" toLane="0"/>
    <connection from="-154405615#1" to="154405615#1" fromLane="0" toLane="0"/>

    <connection from="-154405616" to="154405616" fromLane="0" toLane="0"/>

    <connection from="-154405617" to="-154405621#2" fromLane="0" toLane="0"/>
    <connection from="-154405617" to="154405621#3" fromLane="0" toLane="0"/>
    <connection from="-154405617" to="154405617" fromLane="0" toLane="0"/>

    <connection from="-154405619#0" to="154405460#2" fromLane="0" toLane="0"/>
    <connection from="-154405619#0" to="-154405460#1" fromLane="0" toLane="0"/>
    <connection from="-154405619#0" to="154405619#0" fromLane="0" toLane="0"/>

    <connection from="-154405619#2" to="843357314" fromLane="0" toLane="0"/>
    <connection from="-154405619#2" to="-154405619#0" fromLane="0" toLane="0"/>
    <connection from="-154405619#2" to="154405619#1" fromLane="0" toLane="0"/>

    <connection from="-154405621#0" to="-167014273#0" fromLane="0" toLane="0"/>
    <connection from="-154405621#0" to="167014273#1" fromLane="0" toLane="0"/>
    <connection from="-154405621#0" to="154405621#0" fromLane="0" toLane="0"/>

    <connection from="-154405621#1" to="-154405621#0" fromLane="0" toLane="0"/>
    <connection from="-154405621#1" to="154405471#0" fromLane="0" toLane="0"/>
    <connection from="-154405621#1" to="154405621#1" fromLane="0" toLane="0"/>

    <connection from="-154405621#2" to="154405735" fromLane="0" toLane="0"/>
    <connection from="-154405621#2" to="-154405621#1" fromLane="0" toLane="0"/>
    <connection from="-154405621#2" to="154405621#2" fromLane="0" toLane="0"/>

    <connection from="-154405621#3" to="154405617" fromLane="0" toLane="0"/>
    <connection from="-154405621#3" to="-154405621#2" fromLane="0" toLane="0"/>
    <connection from="-154405621#3" to="154405621#3" fromLane="0" toLane="0"/>

    <connection from="-154405621#4" to="-154405621#3" fromLane="0" toLane="0"/>
    <connection from="-154405621#4" to="-154405646" fromLane="0" toLane="0"/>
    <connection from="-154405621#4" to="154405621#4" fromLane="0" toLane="0"/>

    <connection from="-154405621#5" to="-154405621#4" fromLane="0" toLane="0"/>
    <connection from="-154405621#5" to="-154405498" fromLane="0" toLane="0"/>