<?xml version="1.0" encoding="UTF-8"?>

<!-- generated on 2021-11-09 09:24:44 by Eclipse SUMO netconvert Version 1.10.0
<configuration xmlns:xsi="http://www.w3.org/2001/XMLSchema-instance" xsi:noNamespaceSchemaLocation="http://sumo.dlr.de/xsd/netconvertConfiguration.xsd">

    <input>
        <sumo-net-file value="LosAngeles.net.xml"/>
    </input>

    <output>
        <plain-output-prefix value="LosAngeles"/>
    </output>

    <processing>
        <geometry.min-radius.fix.railways value="false"/>
        <geometry.max-grade.fix value="false"/>
        <offset.disable-normalization value="true"/>
        <lefthand value="false"/>
    </processing>

    <junctions>
        <no-internal-links value="true"/>
        <no-turnarounds value="true"/>
        <junctions.corner-detail value="5"/>
        <junctions.limit-turn-speed value="5.5"/>
        <rectangular-lane-cut value="false"/>
    </junctions>

    <pedestrian>
        <walkingareas value="false"/>
    </pedestrian>

    <report>
        <aggregate-warnings value="5"/>
    </report>

</configuration>
-->

<nodes version="1.9" xmlns:xsi="http://www.w3.org/2001/XMLSchema-instance" xsi:noNamespaceSchemaLocation="http://sumo.dlr.de/xsd/nodes_file.xsd">
    <location netOffset="-385086.92,-3772964.05" convBoundary="0.00,0.00,5746.84,4887.18" origBoundary="-118.245949,34.091504,-118.183758,34.135519" projParameter="+proj=utm +zone=11 +ellps=WGS84 +datum=WGS84 +units=m +no_defs"/>

    <node id="1015438116" x="1088.00" y="3404.51" type="right_before_left"/>
    <node id="1015438133" x="662.24" y="3752.83" type="priority"/>
    <node id="1015438139" x="998.68" y="3328.00" type="right_before_left"/>
    <node id="10552905" x="3613.90" y="3318.64" type="traffic_light" tl="10552905"/>
    <node id="10552907" x="4551.18" y="3076.74" type="traffic_light" tl="10552907"/>
    <node id="10552909" x="5417.55" y="2883.72" type="priority"/>
    <node id="10553872" x="3567.60" y="3123.04" type="priority"/>
    <node id="10553878" x="3503.88" y="2393.39" type="priority"/>
    <node id="10553881" x="3309.25" y="2599.42" type="priority"/>
    <node id="10555065" x="3187.56" y="2543.42" type="priority"/>
    <node id="10555091" x="1613.99" y="1518.15" type="priority"/>
    <node id="111964458" x="5053.68" y="1882.29" type="priority"/>
    <node id="111964509" x="4928.55" y="2141.30" type="priority"/>
    <node id="111964609" x="4820.64" y="2108.96" type="rail_crossing"/>
    <node id="111964671" x="5009.82" y="2219.07" type="rail_crossing"/>
    <node id="111964884" x="4452.73" y="2176.85" type="priority"/>
    <node id="122462702" x="3674.22" y="1821.88" type="priority"/>
    <node id="122526544" x="4352.97" y="2063.71" type="priority"/>
    <node id="122526546" x="4229.21" y="1991.86" type="priority"/>
    <node id="122526550" x="4167.31" y="1956.79" type="right_before_left"/>
    <node id="122531462" x="4053.12" y="2155.44" type="priority"/>
    <node id="122574030" x="4578.18" y="3664.33" type="priority"/>
    <node id="122662720" x="3335.28" y="4286.55" type="priority"/>
    <node id="122662752" x="3402.53" y="3671.76" type="right_before_left"/>
    <node id="122669091" x="3180.88" y="3785.42" type="right_before_left"/>
    <node id="122669098" x="3068.24" y="3174.14" type="priority"/>
    <node id="122696459" x="3131.82" y="2795.11" type="priority"/>
    <node id="122696462" x="3225.76" y="2771.94" type="priority"/>
    <node id="122700455" x="3839.38" y="1387.34" type="priority"/>
    <node id="122709840" x="4095.10" y="2263.17" type="priority"/>
    <node id="122709842" x="4319.71" y="2261.26" type="priority"/>
    <node id="122773032" x="4820.96" y="4115.42" type="priority"/>
    <node id="122773046" x="4734.56" y="3332.82" type="priority"/>
    <node id="122773064" x="4720.84" y="3159.57" type="priority"/>
    <node id="122810286" x="4363.21" y="3439.86" type="priority"/>
    <node id="122871742" x="3640.58" y="1802.08" type="priority"/>
    <node id="122880245" x="3175.17" y="2450.45" type="priority"/>
    <node id="122880247" x="3137.48" y="2494.07" type="priority"/>
    <node id="122898955" x="3324.70" y="2970.14" type="priority"/>
    <node id="122898964" x="3830.21" y="1464.26" type="priority"/>
    <node id="122898966" x="3739.18" y="1624.20" type="priority"/>
    <node id="122940740" x="4615.34" y="1317.09" type="priority"/>
    <node id="122953075" x="3471.90" y="2615.63" type="priority"/>
    <node id="122953080" x="3537.23" y="2541.45" type="priority"/>
    <node id="122953818" x="2166.41" y="3641.70" type="priority"/>
    <node id="122953820" x="2254.19" y="3702.32" type="priority"/>
    <node id="122986997" x="3036.71" y="3778.55" type="right_before_left"/>
    <node id="122987005" x="3297.76" y="3827.49" type="right_before_left"/>
    <node id="122995011" x="5042.40" y="1530.95" type="priority"/>
    <node id="123087806" x="4364.67" y="1756.97" type="priority"/>
    <node id="123087812" x="4390.38" y="1849.76" type="priority"/>
    <node id="123114205" x="1108.39" y="3882.09" type="priority"/>
    <node id="123183276" x="3903.98" y="3651.94" type="priority"/>
    <node id="123183958" x="4314.22" y="3648.24" type="priority"/>
    <node id="123184632" x="4406.20" y="3676.37" type="priority"/>
    <node id="123184677" x="4322.65" y="3249.83" type="priority"/>
    <node id="123185480" x="4887.48" y="2432.68" type="priority"/>
    <node id="123185483" x="4851.28" y="2491.38" type="priority"/>
    <node id="123230019" x="4422.80" y="3622.36" type="priority"/>
    <node id="123235474" x="1384.70" y="3490.01" type="priority"/>
    <node id="123255114" x="3641.58" y="2908.24" type="priority"/>
    <node id="123255130" x="3194.85" y="2994.49" type="priority"/>
    <node id="123255133" x="3417.86" y="2947.76" type="priority"/>
    <node id="123268721" x="4484.60" y="1747.15" type="traffic_light" tl="joinedS_0"/>
    <node id="123316301" x="3776.32" y="2105.53" type="priority"/>
    <node id="123316304" x="3722.36" y="2107.24" type="priority"/>
    <node id="123411909" x="5042.67" y="1391.57" type="priority"/>
    <node id="123418965" x="5047.18" y="1608.71" type="priority"/>
    <node id="123455875" x="4860.82" y="2496.85" type="priority"/>
    <node id="123455884" x="4919.90" y="2538.75" type="priority"/>
    <node id="123455887" x="4982.40" y="2573.56" type="priority"/>
    <node id="123456897" x="3606.03" y="1558.15" type="priority"/>
    <node id="123461841-AddedOffRampNode" x="1636.83" y="3881.61" type="priority"/>
    <node id="123471196" x="3580.30" y="1653.17" type="priority"/>
    <node id="123770882" x="1091.68" y="2964.98" type="priority"/>
    <node id="1376737820" x="1590.01" y="4204.23" type="dead_end"/>
    <node id="14752110" x="2191.77" y="3292.92" type="priority"/>
    <node id="14759629" x="3716.11" y="2018.68" type="priority"/>
    <node id="14759630" x="4028.33" y="1483.63" type="traffic_light" tl="14759630"/>
    <node id="14759683" x="4275.17" y="1626.99" type="traffic_light" tl="14759683"/>
    <node id="14759760" x="4207.15" y="1744.30" type="priority"/>
    <node id="14854783" x="1374.60" y="3505.90" type="priority"/>
    <node id="14919730" x="4939.43" y="1365.35" type="priority"/>
    <node id="14919731" x="4900.24" y="1265.45" type="dead_end"/>
    <node id="14956558" x="3590.62" y="3221.64" type="priority"/>
    <node id="14956559" x="4323.81" y="3145.49" type="traffic_light" tl="14956559"/>
    <node id="14956566" x="3561.90" y="2247.86" type="priority"/>
    <node id="14956699" x="3312.44" y="2461.90" type="priority"/>
    <node id="14956718" x="1738.06" y="1571.00" type="priority"/>
    <node id="14956738" x="1853.48" y="2543.16" type="priority"/>
    <node id="15027651" x="1602.86" y="3769.80" type="priority"/>
    <node id="15027659" x="1841.13" y="3570.99" type="priority"/>
    <node id="15069903" x="1697.43" y="3922.45" type="priority"/>
    <node id="15349146" x="3887.87" y="1727.12" type="priority"/>
    <node id="15349153" x="4009.38" y="1802.02" type="priority"/>
    <node id="15349162" x="3956.52" y="1608.70" type="priority"/>
    <node id="15349166" x="4077.76" y="1683.14" type="priority"/>
    <node id="15349169" x="4201.33" y="1753.97" type="priority"/>
    <node id="15388375" x="4513.16" y="1307.56" type="priority"/>
    <node id="15679435" x="5475.23" y="1822.29" type="priority"/>
    <node id="15849800" x="4521.26" y="1768.95" type="traffic_light" tl="joinedS_0"/>
    <node id="15850817" x="3693.07" y="2051.74" type="priority"/>
    <node id="15850821" x="3796.17" y="2276.46" type="priority"/>
    <node id="15850830" x="3162.19" y="2685.21" type="priority"/>
    <node id="1613060220" x="807.07" y="1371.08" type="priority"/>
    <node id="1613060225" x="786.83" y="1400.97" type="priority"/>
    <node id="1613060230" x="702.46" y="1451.90" type="priority"/>
    <node id="1613060248" x="726.95" y="1493.65" type="traffic_light" tl="joinedS_1"/>
    <node id="1613060265" x="699.18" y="1506.11" type="priority"/>
    <node id="1613060269" x="712.61" y="1529.47" type="priority"/>
    <node id="1614182645" x="1346.71" y="1531.67" type="priority"/>
    <node id="1614182661" x="1528.29" y="1641.73" type="priority"/>
    <node id="1614189748" x="2263.10" y="1703.57" type="priority"/>
    <node id="1614189750" x="2121.39" y="1734.20" type="priority"/>
    <node id="161776092#1-AddedOffRampNode" x="1779.48" y="3285.53" type="priority"/>
    <node id="16212821" x="1548.47" y="3771.20" type="priority"/>
    <node id="16212824" x="1329.41" y="3740.66" type="traffic_light" tl="16212824"/>
    <node id="1664370988" x="2108.52" y="2842.37" type="priority"/>
    <node id="1669445932" x="3314.19" y="687.70" type="priority"/>
    <node id="1669446133" x="2339.90" y="866.20" type="priority"/>
    <node id="1669446416" x="3430.13" y="1019.93" type="priority"/>
    <node id="1669446712" x="3439.51" y="1244.18" type="priority"/>
    <node id="1669446780" x="2666.34" y="1282.99" type="priority"/>
    <node id="1669446803" x="3508.30" y="1283.77" type="priority"/>
    <node id="1669446811" x="2775.54" y="1301.07" type="priority"/>
    <node id="1669447043" x="2908.27" y="1350.01" type="priority"/>
    <node id="1669447086" x="3220.58" y="1360.56" type="priority"/>
    <node id="1669447217" x="2642.92" y="1402.80" type="priority"/>
    <node id="1669447224" x="2967.54" y="1400.71" type="priority"/>
    <node id="1669447260" x="3348.77" y="1402.85" type="priority"/>
    <node id="1669447284" x="3217.14" y="1412.39" type="priority"/>
    <node id="1669447480" x="3307.80" y="1464.77" type="priority"/>
    <node id="1669447521" x="3191.39" y="1473.58" type="priority"/>
    <node id="1669447559" x="2322.83" y="1495.30" type="priority"/>
    <node id="1669447609" x="2907.55" y="1484.05" type="priority"/>
    <node id="1669447688" x="3271.07" y="1487.06" type="priority"/>
    <node id="1669447913" x="2859.46" y="1528.94" type="priority"/>
    <node id="1669447919" x="2959.03" y="1530.46" type="priority"/>
    <node id="1669447921" x="2662.51" y="1535.59" type="priority"/>
    <node id="1669448151" x="2516.60" y="1586.97" type="priority"/>
    <node id="1669448203" x="3149.38" y="1587.65" type="priority"/>
    <node id="1669448265" x="1874.10" y="1637.73" type="priority"/>
    <node id="1669448350" x="3367.29" y="1643.18" type="priority"/>
    <node id="1669448396" x="2668.54" y="1671.55" type="priority"/>
    <node id="1669448424" x="2596.21" y="1678.96" type="priority"/>
    <node id="1669448447" x="2494.55" y="1687.60" type="priority"/>
    <node id="1669448504" x="1888.08" y="1715.96" type="priority"/>
    <node id="1669448532" x="3068.75" y="1691.11" type="priority"/>
    <node id="1669448567" x="3287.73" y="1717.43" type="priority"/>
    <node id="1669448595" x="3056.28" y="1726.61" type="priority"/>
    <node id="1669448624" x="1500.58" y="1752.50" type="priority"/>
    <node id="1669448636" x="3048.46" y="1743.56" type="priority"/>
    <node id="1669448674" x="2561.44" y="1765.32" type="priority"/>
    <node id="1669448682" x="2461.78" y="1770.73" type="priority"/>
    <node id="1669448709" x="2413.36" y="1779.51" type="priority"/>
    <node id="1669448758" x="1648.88" y="1803.86" type="priority"/>
    <node id="1669448785" x="2590.62" y="1798.58" type="priority"/>
    <node id="1669448793" x="1741.24" y="1812.56" type="priority"/>
    <node id="1669448828" x="3086.10" y="1803.89" type="priority"/>
    <node id="1669448853" x="1499.82" y="1835.93" type="priority"/>
    <node id="1669448854" x="1321.27" y="1843.87" type="priority"/>
    <node id="1669448883" x="1421.18" y="1848.08" type="priority"/>
    <node id="1669448958" x="1772.64" y="1869.81" type="priority"/>
    <node id="1669449029" x="2903.89" y="1890.01" type="priority"/>
    <node id="1669449033" x="1614.83" y="1910.63" type="priority"/>
    <node id="1669449076" x="1673.64" y="1929.89" type="priority"/>
    <node id="1669449086" x="2018.04" y="1969.56" type="priority"/>
    <node id="1669449098" x="1748.70" y="1942.52" type="priority"/>
    <node id="1669449121" x="2660.76" y="1940.37" type="priority"/>
    <node id="1669449146" x="2116.31" y="1965.06" type="priority"/>
    <node id="1669449198" x="2425.50" y="1984.65" type="priority"/>
    <node id="1669449295" x="2072.35" y="2038.00" type="priority"/>
    <node id="1669449340" x="1951.18" y="2092.62" type="priority"/>
    <node id="1669449357" x="1469.62" y="2101.36" type="priority"/>
    <node id="1669449370" x="2027.92" y="2116.37" type="priority"/>
    <node id="1669449413" x="1629.77" y="2148.23" type="priority"/>
    <node id="1669449517" x="1927.26" y="2208.43" type="priority"/>
    <node id="1669449559" x="3042.61" y="2229.17" type="priority"/>
    <node id="1669449620" x="1967.82" y="2290.46" type="priority"/>
    <node id="1669449649" x="1426.16" y="2307.39" type="priority"/>
    <node id="1669449653" x="1725.95" y="2306.11" type="priority"/>
    <node id="1669449685" x="3301.90" y="2303.73" type="priority"/>
    <node id="1669449695" x="1584.33" y="2327.56" type="priority"/>
    <node id="1669449697" x="1687.55" y="2326.98" type="priority"/>
    <node id="1669449705" x="2036.14" y="2326.13" type="priority"/>
    <node id="1669449708" x="3233.25" y="2312.75" type="priority"/>
    <node id="1669449742" x="3191.10" y="2328.22" type="priority"/>
    <node id="1669449759" x="1974.52" y="2349.05" type="priority"/>
    <node id="1669449763" x="3243.50" y="2336.58" type="priority"/>
    <node id="1669449810" x="1759.99" y="2398.87" type="priority"/>
    <node id="1669449845" x="2006.47" y="2413.77" type="priority"/>
    <node id="1669449909" x="1870.28" y="2434.14" type="priority"/>
    <node id="1669449990" x="1367.15" y="2461.00" type="priority"/>
    <node id="1669450093" x="1487.01" y="2480.67" type="priority"/>
    <node id="1669450179" x="2039.79" y="2484.57" type="priority"/>
    <node id="1669450238" x="1941.82" y="2492.06" type="priority"/>
    <node id="1669450420" x="1949.58" y="2523.36" type="priority"/>
    <node id="1669450467" x="1655.61" y="2532.21" type="priority"/>
    <node id="1669450557" x="1640.60" y="2554.72" type="priority"/>
    <node id="1669450645" x="1389.13" y="2564.92" type="priority"/>
    <node id="1669450742" x="1603.41" y="2578.95" type="priority"/>
    <node id="1669450747" x="1579.34" y="2574.87" type="priority"/>
    <node id="1669450787" x="1818.35" y="2587.59" type="priority"/>
    <node id="1669450843" x="2017.56" y="2600.29" type="priority"/>
    <node id="1669450893" x="1567.70" y="2617.00" type="priority"/>
    <node id="1669450903" x="2039.88" y="2622.98" type="priority"/>
    <node id="1669450949" x="1948.62" y="2751.06" type="priority"/>
    <node id="1669510423" x="1943.21" y="1223.07" type="priority"/>
    <node id="1669510534" x="1533.83" y="1297.19" type="priority"/>
    <node id="1669510628" x="1969.77" y="1329.88" type="priority"/>
    <node id="1669510633" x="1766.13" y="1357.79" type="priority"/>
    <node id="1669510653" x="2015.65" y="1385.90" type="priority"/>
    <node id="1669510657" x="1396.07" y="1402.65" type="priority"/>
    <node id="1669510658" x="1538.60" y="1402.27" type="priority"/>
    <node id="1669510669" x="1860.42" y="1404.50" type="priority"/>
    <node id="1669510676" x="2045.61" y="1422.36" type="priority"/>
    <node id="1669510678" x="1690.15" y="1437.82" type="priority"/>
    <node id="1669510697" x="1810.85" y="1494.04" type="priority"/>
    <node id="1669510699" x="1859.55" y="1516.75" type="priority"/>
    <node id="1669510702" x="1906.77" y="1538.70" type="priority"/>
    <node id="1669510718" x="1458.83" y="1726.08" type="priority"/>
    <node id="1669532064" x="856.16" y="1400.19" type="priority"/>
    <node id="1669532066" x="1139.94" y="1423.04" type="priority"/>
    <node id="1669532067" x="920.02" y="1439.90" type="priority"/>
    <node id="1669532082" x="1247.18" y="1479.64" type="priority"/>
    <node id="1669532084" x="803.04" y="1485.68" type="priority"/>
    <node id="1669532090" x="1092.88" y="1498.81" type="priority"/>
    <node id="1669532092" x="1358.79" y="1500.92" type="priority"/>
    <node id="1669532113" x="1226.08" y="1581.49" type="priority"/>
    <node id="1669532115" x="968.43" y="1606.00" type="priority"/>
    <node id="1669532117" x="1290.77" y="1621.74" type="priority"/>
    <node id="1669532129" x="859.73" y="1688.98" type="priority"/>
    <node id="1669532131" x="838.18" y="1691.31" type="priority"/>
    <node id="1669532132" x="752.18" y="1696.68" type="priority"/>
    <node id="1669532134" x="1020.07" y="1726.38" type="priority"/>
    <node id="1669532143" x="760.64" y="1831.99" type="priority"/>
    <node id="1669532149" x="1111.96" y="1925.67" type="priority"/>
    <node id="1669532150" x="1364.95" y="1935.82" type="priority"/>
    <node id="1669532151" x="1161.61" y="1957.24" type="priority"/>
    <node id="1669532155" x="1140.85" y="1987.88" type="priority"/>
    <node id="1669532156" x="931.24" y="2016.58" type="priority"/>
    <node id="1669532157" x="1115.85" y="2018.57" type="priority"/>
    <node id="1669532159" x="847.98" y="2058.51" type="priority"/>
    <node id="1669532162" x="1212.36" y="2118.55" type="priority"/>
    <node id="1669532171" x="1144.93" y="2157.73" type="priority"/>
    <node id="1669532177" x="1397.59" y="2210.36" type="priority"/>
    <node id="1669532178" x="1330.29" y="2214.06" type="priority"/>
    <node id="1669532180" x="1124.35" y="2226.49" type="priority"/>
    <node id="1669532185" x="912.14" y="2260.59" type="traffic_light" tl="1669532185"/>
    <node id="1669532187" x="1166.48" y="2263.06" type="priority"/>
    <node id="1669532190" x="1247.92" y="2276.79" type="priority"/>
    <node id="1669532191" x="835.07" y="2284.38" type="traffic_light" tl="1669532191"/>
    <node id="1669532196" x="963.83" y="2422.99" type="priority"/>
    <node id="1669532198" x="983.87" y="2486.30" type="traffic_light" tl="1669532198"/>
    <node id="1669532201" x="1213.29" y="2509.37" type="priority"/>
    <node id="1669532204" x="662.06" y="2542.65" type="priority"/>
    <node id="1669532205" x="1318.50" y="2559.45" type="priority"/>
    <node id="1669532206" x="1172.03" y="2570.35" type="priority"/>
    <node id="1669532208" x="1139.12" y="2603.61" type="priority"/>
    <node id="1669532213" x="1066.83" y="2671.95" type="priority"/>
    <node id="1669532214" x="1182.74" y="2836.35" type="priority"/>
    <node id="1669532217" x="1244.74" y="2941.85" type="priority"/>
    <node id="1669532229" x="1270.67" y="3075.40" type="priority"/>
    <node id="1669532236" x="1476.79" y="3272.86" type="priority"/>
    <node id="1669539739" x="698.49" y="1672.45" type="priority"/>
    <node id="1669539742" x="730.55" y="1833.86" type="traffic_light" tl="1669539742"/>
    <node id="1669539744" x="401.43" y="1908.00" type="priority"/>
    <node id="1669539746" x="503.59" y="1973.74" type="priority"/>
    <node id="1669539747" x="595.74" y="2033.29" type="priority"/>
    <node id="1669539750" x="695.23" y="2097.74" type="priority"/>
    <node id="1669539753" x="799.24" y="2124.37" type="priority"/>
    <node id="1669539759" x="282.30" y="2316.25" type="priority"/>
    <node id="1669539760" x="392.37" y="2348.18" type="priority"/>
    <node id="1669539766" x="869.03" y="2437.60" type="priority"/>
    <node id="1669539775" x="564.97" y="2485.38" type="priority"/>
    <node id="1669539784" x="899.16" y="2578.51" type="priority"/>
    <node id="1669539788" x="474.82" y="2597.16" type="priority"/>
    <node id="1669539791" x="941.40" y="2675.42" type="priority"/>
    <node id="1669539794" x="685.50" y="2711.67" type="priority"/>
    <node id="1669539801" x="778.77" y="2765.16" type="priority"/>
    <node id="1669539806" x="866.04" y="2818.33" type="priority"/>
    <node id="1669539808" x="953.20" y="2871.51" type="priority"/>
    <node id="1669539812" x="1041.26" y="2925.52" type="priority"/>
    <node id="1669539817" x="1134.42" y="2967.36" type="priority"/>
    <node id="1669562312" x="2307.76" y="1882.14" type="priority"/>
    <node id="1669562345" x="2891.69" y="2000.93" type="priority"/>
    <node id="1669562368" x="2404.44" y="2044.69" type="priority"/>
    <node id="1669562383" x="2336.88" y="2058.01" type="priority"/>
    <node id="1669562402" x="2745.07" y="2063.80" type="priority"/>
    <node id="1669562440" x="2906.58" y="2099.70" type="priority"/>
    <node id="1669562443" x="2258.82" y="2101.76" type="priority"/>
    <node id="1669562460" x="2569.89" y="2118.12" type="priority"/>
    <node id="1669562469" x="2659.99" y="2123.92" type="priority"/>
    <node id="1669562510" x="2419.37" y="2143.54" type="priority"/>
    <node id="1669562542" x="2304.80" y="2198.25" type="priority"/>
    <node id="1669562569" x="2797.10" y="2218.89" type="priority"/>
    <node id="1669562576" x="2500.52" y="2233.96" type="priority"/>
    <node id="1669562609" x="2876.92" y="2299.51" type="priority"/>
    <node id="1669562647" x="2446.45" y="2313.52" type="priority"/>
    <node id="1669562664" x="2759.01" y="2335.79" type="priority"/>
    <node id="1669562666" x="2270.69" y="2346.50" type="priority"/>
    <node id="1669562678" x="2793.15" y="2367.33" type="priority"/>
    <node id="1669562715" x="2758.91" y="2397.24" type="priority"/>
    <node id="1669562785" x="2348.44" y="2468.45" type="priority"/>
    <node id="1669562795" x="2545.31" y="2470.65" type="priority"/>
    <node id="1669562865" x="2681.43" y="2498.53" type="priority"/>
    <node id="1669562882" x="3051.20" y="2502.45" type="priority"/>
    <node id="1669562912" x="2243.85" y="2531.59" type="priority"/>
    <node id="1669562969" x="2279.55" y="2570.98" type="priority"/>
    <node id="1669563002" x="2834.96" y="2602.17" type="priority"/>
    <node id="1669563071" x="2605.98" y="2645.71" type="priority"/>
    <node id="1669563077" x="2435.22" y="2645.71" type="priority"/>
    <node id="1669563103" x="2314.31" y="2669.71" type="priority"/>
    <node id="1669563154" x="1704.95" y="2723.70" type="priority"/>
    <node id="1669563217" x="2583.83" y="2722.06" type="priority"/>
    <node id="1669563241" x="2434.93" y="2728.49" type="priority"/>
    <node id="1669563431" x="1792.60" y="2786.42" type="priority"/>
    <node id="1669563462" x="2135.86" y="2796.17" type="priority"/>
    <node id="1669563479" x="2632.51" y="2797.78" type="priority"/>
    <node id="1669563639" x="2348.99" y="2831.22" type="priority"/>
    <node id="1669563644" x="2186.23" y="2834.94" type="priority"/>
    <node id="1669563695" x="2518.73" y="2847.82" type="priority"/>
    <node id="1669563742" x="2477.17" y="2859.52" type="priority"/>
    <node id="1669563808" x="2088.03" y="2876.93" type="priority"/>
    <node id="1669563863" x="2678.31" y="2892.02" type="priority"/>
    <node id="1669563875" x="1679.72" y="2911.00" type="priority"/>
    <node id="1669563892" x="1758.64" y="2915.59" type="priority"/>
    <node id="1669563912" x="2064.89" y="2916.13" type="priority"/>
    <node id="1669563947" x="2551.16" y="2921.74" type="priority"/>
    <node id="1669563994" x="2251.29" y="2945.51" type="priority"/>
    <node id="1669563995" x="2434.57" y="2945.76" type="priority"/>
    <node id="1669563998" x="2040.75" y="2957.01" type="priority"/>
    <node id="1669564004" x="2283.27" y="2958.99" type="priority"/>
    <node id="1669564041" x="2027.64" y="2979.24" type="priority"/>
    <node id="1669564065" x="2012.90" y="3004.26" type="priority"/>
    <node id="1669564074" x="2075.56" y="3006.50" type="priority"/>
    <node id="1669564098" x="1751.46" y="3024.37" type="priority"/>
    <node id="1669564109" x="2439.76" y="3024.88" type="priority"/>
    <node id="1669564152" x="1959.67" y="3087.97" type="priority"/>
    <node id="1669564156" x="1677.03" y="3094.58" type="priority"/>
    <node id="1669564180" x="2011.81" y="3128.27" type="priority"/>
    <node id="1669564218" x="1988.53" y="3210.06" type="priority"/>
    <node id="1669564224" x="2179.78" y="3231.06" type="priority"/>
    <node id="1669564266" x="2344.95" y="3380.51" type="priority"/>
    <node id="1669570843" x="3888.39" y="1540.16" type="priority"/>
    <node id="1669570844" x="3877.22" y="1561.08" type="priority"/>
    <node id="1669570846" x="3387.82" y="1828.70" type="priority"/>
    <node id="1669570847" x="3484.69" y="1827.68" type="priority"/>
    <node id="1669570848" x="3706.80" y="1839.53" type="priority"/>
    <node id="1669570850" x="3591.08" y="1888.94" type="priority"/>
    <node id="1669570851" x="3493.46" y="1889.89" type="priority"/>
    <node id="1669570862" x="3449.61" y="1965.38" type="priority"/>
    <node id="1669570868" x="3364.27" y="1995.56" type="priority"/>
    <node id="1669570878" x="3334.91" y="2094.83" type="priority"/>
    <node id="1669570900" x="3499.83" y="2346.63" type="priority"/>
    <node id="1669570901" x="3379.67" y="2369.35" type="priority"/>
    <node id="1669570913" x="2872.47" y="2781.39" type="priority"/>
    <node id="1669571378" x="2327.28" y="3277.74" type="priority"/>
    <node id="1669571379" x="2386.45" y="3311.10" type="priority"/>
    <node id="1669571380" x="2432.05" y="3338.17" type="priority"/>
    <node id="1669571956" x="2294.31" y="3126.46" type="priority"/>
    <node id="1669571958" x="2317.28" y="3141.80" type="priority"/>
    <node id="16696232" x="5036.01" y="2393.45" type="priority"/>
    <node id="16696233" x="5178.37" y="2146.98" type="priority"/>
    <node id="16696234" x="4379.82" y="2015.64" type="priority"/>
    <node id="16696425" x="3550.60" y="3024.73" type="priority"/>
    <node id="16743919" x="3726.49" y="1617.33" type="priority"/>
    <node id="17040712" x="1361.52" y="3188.25" type="priority"/>
    <node id="17507317" x="3931.14" y="1143.22" type="priority"/>
    <node id="17507321" x="4016.52" y="1504.31" type="priority"/>
    <node id="175623975" x="5250.72" y="2981.89" type="priority"/>
    <node id="17674844" x="988.79" y="1329.16" type="priority"/>
    <node id="17737758" x="4751.30" y="2228.65" type="priority"/>
    <node id="17737759" x="4132.57" y="1872.98" type="priority"/>
    <node id="1782812735" x="430.53" y="2632.02" type="dead_end"/>
    <node id="1782824082" x="820.85" y="2886.42" type="priority"/>
    <node id="1782824084" x="509.66" y="3198.03" type="priority"/>
    <node id="1782824093" x="887.18" y="3084.87" type="priority"/>
    <node id="1782824116" x="380.17" y="3484.21" type="priority"/>
    <node id="1782824124" x="689.70" y="2807.66" type="priority"/>
    <node id="1783167876" x="2111.71" y="4449.11" type="priority"/>
    <node id="1783198261" x="4427.07" y="3424.70" type="priority"/>
    <node id="1783734611" x="4743.87" y="2646.07" type="priority"/>
    <node id="1783734637" x="4567.33" y="3138.04" type="priority"/>
    <node id="1783784925" x="1122.91" y="3186.72" type="priority"/>
    <node id="1783784928" x="1063.28" y="3071.42" type="priority"/>
    <node id="1783784930" x="1211.41" y="3128.87" type="priority"/>
    <node id="1783784947" x="938.77" y="3169.67" type="priority"/>
    <node id="1783784957" x="1155.13" y="3118.77" type="priority"/>
    <node id="1783784963" x="1079.10" y="3045.29" type="priority"/>
    <node id="1783926536" x="1687.81" y="3729.15" type="priority"/>
    <node id="1783926563" x="1640.73" y="3781.75" type="priority"/>
    <node id="1783984117" x="908.49" y="4049.15" type="priority"/>
    <node id="1783984124" x="941.25" y="3771.97" type="priority"/>
    <node id="1783984143" x="1451.89" y="4000.20" type="priority"/>
    <node id="1783984148" x="933.38" y="3881.33" type="priority"/>
    <node id="1783984163" x="972.16" y="3780.51" type="priority"/>
    <node id="1783984169" x="1213.73" y="3958.28" type="priority"/>
    <node id="1783984173" x="1104.40" y="3802.01" type="priority"/>
    <node id="1784020216" x="3738.89" y="2697.33" type="priority"/>
    <node id="1784020224" x="3698.22" y="2602.01" type="priority"/>
    <node id="1784020245" x="3792.74" y="2830.27" type="priority"/>
    <node id="1784020253" x="3749.11" y="2627.06" type="priority"/>
    <node id="1784020256" x="4119.72" y="2835.64" type="priority"/>
    <node id="1784020278" x="3963.23" y="2493.81" type="priority"/>
    <node id="1784020283" x="3921.78" y="2883.24" type="priority"/>
    <node id="1784020295" x="3647.19" y="2590.04" type="priority"/>
    <node id="1784020299" x="4091.96" y="2723.97" type="priority"/>
    <node id="1784020309" x="3970.54" y="2577.93" type="priority"/>
    <node id="1784020316" x="3605.39" y="2607.14" type="priority"/>